*SPEF "ieee 1481-1999"
*DESIGN "alu_8bit"
*DATE "11:11:11 Fri 11 11, 1111"
*VENDOR "OpenRCX"
*PROGRAM "Parallel Extraction"
*VERSION "1.0"
*DESIGN_FLOW "NAME_SCOPE LOCAL" "PIN_CAP NONE"
*DIVIDER /
*DELIMITER :
*BUS_DELIMITER []
*T_UNIT 1 NS
*C_UNIT 1 PF
*R_UNIT 1 OHM
*L_UNIT 1 HENRY

*NAME_MAP
*1 ALU_Out[0]
*2 ALU_Out[1]
*3 ALU_Out[2]
*4 ALU_Out[3]
*5 ALU_Out[4]
*6 ALU_Out[5]
*7 ALU_Out[6]
*8 ALU_Out[7]
*9 A[0]
*10 A[1]
*11 A[2]
*12 A[3]
*13 A[4]
*14 A[5]
*15 A[6]
*16 A[7]
*17 B[0]
*18 B[1]
*19 B[2]
*20 B[3]
*21 B[4]
*22 B[5]
*23 B[6]
*24 B[7]
*25 CarryOut
*28 opcode[0]
*29 opcode[1]
*30 opcode[2]
*31 _000_
*32 _001_
*33 _002_
*34 _003_
*35 _004_
*36 _005_
*37 _006_
*38 _007_
*39 _008_
*40 _009_
*41 _010_
*42 _011_
*43 _012_
*44 _013_
*45 _014_
*46 _015_
*47 _016_
*48 _017_
*49 _018_
*50 _019_
*51 _020_
*52 _021_
*53 _022_
*54 _023_
*55 _024_
*56 _025_
*57 _026_
*58 _027_
*59 _028_
*60 _029_
*61 _030_
*62 _031_
*63 _032_
*64 _033_
*65 _034_
*66 _035_
*67 _036_
*68 _037_
*69 _038_
*70 _039_
*71 _040_
*72 _041_
*73 _042_
*74 _043_
*75 _044_
*76 _045_
*77 _046_
*78 _047_
*79 _048_
*80 _049_
*81 _050_
*82 _051_
*83 _052_
*84 _053_
*85 _054_
*86 _055_
*87 _056_
*88 _057_
*89 _058_
*90 _059_
*91 _060_
*92 _061_
*93 _062_
*94 _063_
*95 _064_
*96 _065_
*97 _066_
*98 _067_
*99 _068_
*100 _069_
*101 _070_
*102 _071_
*103 _072_
*104 _073_
*105 _074_
*106 _075_
*107 _076_
*108 _077_
*109 _078_
*110 _079_
*111 _080_
*112 _081_
*113 _082_
*114 _083_
*115 _084_
*116 _085_
*117 _086_
*118 _087_
*119 _088_
*120 _089_
*121 _090_
*122 _091_
*123 _092_
*124 _093_
*125 _094_
*126 _095_
*127 _096_
*128 _097_
*129 _098_
*130 _099_
*131 _100_
*132 _101_
*133 _102_
*134 _103_
*135 _104_
*136 _105_
*137 net1
*138 net10
*139 net11
*140 net12
*141 net13
*142 net14
*143 net15
*144 net16
*145 net17
*146 net18
*147 net19
*148 net2
*149 net20
*150 net21
*151 net22
*152 net23
*153 net24
*154 net25
*155 net26
*156 net27
*157 net28
*158 net3
*159 net4
*160 net5
*161 net6
*162 net7
*163 net8
*164 net9
*165 FILLER_0_0_16
*166 FILLER_0_0_21
*167 FILLER_0_0_27
*168 FILLER_0_0_39
*169 FILLER_0_0_48
*170 FILLER_0_0_63
*171 FILLER_0_0_69
*172 FILLER_0_0_73
*173 FILLER_0_10_15
*174 FILLER_0_10_3
*175 FILLER_0_10_38
*176 FILLER_0_10_50
*177 FILLER_0_10_54
*178 FILLER_0_10_73
*179 FILLER_0_10_91
*180 FILLER_0_11_22
*181 FILLER_0_11_29
*182 FILLER_0_11_41
*183 FILLER_0_11_49
*184 FILLER_0_11_54
*185 FILLER_0_11_57
*186 FILLER_0_11_6
*187 FILLER_0_11_69
*188 FILLER_0_11_77
*189 FILLER_0_11_83
*190 FILLER_0_11_88
*191 FILLER_0_12_29
*192 FILLER_0_12_3
*193 FILLER_0_12_33
*194 FILLER_0_12_38
*195 FILLER_0_12_56
*196 FILLER_0_12_67
*197 FILLER_0_12_79
*198 FILLER_0_12_83
*199 FILLER_0_12_85
*200 FILLER_0_12_93
*201 FILLER_0_13_28
*202 FILLER_0_13_3
*203 FILLER_0_13_34
*204 FILLER_0_13_38
*205 FILLER_0_13_54
*206 FILLER_0_13_57
*207 FILLER_0_13_63
*208 FILLER_0_13_7
*209 FILLER_0_13_93
*210 FILLER_0_14_14
*211 FILLER_0_14_41
*212 FILLER_0_14_6
*213 FILLER_0_14_80
*214 FILLER_0_15_15
*215 FILLER_0_15_23
*216 FILLER_0_15_27
*217 FILLER_0_15_29
*218 FILLER_0_15_3
*219 FILLER_0_15_37
*220 FILLER_0_15_44
*221 FILLER_0_15_50
*222 FILLER_0_15_57
*223 FILLER_0_15_69
*224 FILLER_0_15_77
*225 FILLER_0_15_83
*226 FILLER_0_1_25
*227 FILLER_0_1_3
*228 FILLER_0_1_39
*229 FILLER_0_1_46
*230 FILLER_0_1_54
*231 FILLER_0_1_70
*232 FILLER_0_1_85
*233 FILLER_0_1_93
*234 FILLER_0_2_21
*235 FILLER_0_2_25
*236 FILLER_0_2_29
*237 FILLER_0_2_36
*238 FILLER_0_2_48
*239 FILLER_0_2_62
*240 FILLER_0_2_71
*241 FILLER_0_2_83
*242 FILLER_0_2_85
*243 FILLER_0_2_9
*244 FILLER_0_2_93
*245 FILLER_0_3_11
*246 FILLER_0_3_19
*247 FILLER_0_3_3
*248 FILLER_0_3_57
*249 FILLER_0_3_64
*250 FILLER_0_3_79
*251 FILLER_0_3_91
*252 FILLER_0_4_15
*253 FILLER_0_4_27
*254 FILLER_0_4_29
*255 FILLER_0_4_3
*256 FILLER_0_4_37
*257 FILLER_0_4_42
*258 FILLER_0_4_50
*259 FILLER_0_4_58
*260 FILLER_0_4_64
*261 FILLER_0_4_68
*262 FILLER_0_4_80
*263 FILLER_0_4_85
*264 FILLER_0_5_22
*265 FILLER_0_5_34
*266 FILLER_0_5_42
*267 FILLER_0_5_50
*268 FILLER_0_5_57
*269 FILLER_0_5_6
*270 FILLER_0_5_69
*271 FILLER_0_5_81
*272 FILLER_0_5_89
*273 FILLER_0_5_93
*274 FILLER_0_6_13
*275 FILLER_0_6_3
*276 FILLER_0_6_35
*277 FILLER_0_6_46
*278 FILLER_0_6_55
*279 FILLER_0_6_71
*280 FILLER_0_6_92
*281 FILLER_0_7_11
*282 FILLER_0_7_21
*283 FILLER_0_7_3
*284 FILLER_0_7_74
*285 FILLER_0_7_80
*286 FILLER_0_7_86
*287 FILLER_0_8_11
*288 FILLER_0_8_27
*289 FILLER_0_8_29
*290 FILLER_0_8_37
*291 FILLER_0_8_44
*292 FILLER_0_8_52
*293 FILLER_0_8_64
*294 FILLER_0_8_7
*295 FILLER_0_8_76
*296 FILLER_0_8_80
*297 FILLER_0_8_85
*298 FILLER_0_8_93
*299 FILLER_0_9_19
*300 FILLER_0_9_23
*301 FILLER_0_9_3
*302 FILLER_0_9_30
*303 FILLER_0_9_42
*304 FILLER_0_9_54
*305 FILLER_0_9_57
*306 FILLER_0_9_72
*307 FILLER_0_9_84
*308 PHY_0
*309 PHY_1
*310 PHY_10
*311 PHY_11
*312 PHY_12
*313 PHY_13
*314 PHY_14
*315 PHY_15
*316 PHY_16
*317 PHY_17
*318 PHY_18
*319 PHY_19
*320 PHY_2
*321 PHY_20
*322 PHY_21
*323 PHY_22
*324 PHY_23
*325 PHY_24
*326 PHY_25
*327 PHY_26
*328 PHY_27
*329 PHY_28
*330 PHY_29
*331 PHY_3
*332 PHY_30
*333 PHY_31
*334 PHY_4
*335 PHY_5
*336 PHY_6
*337 PHY_7
*338 PHY_8
*339 PHY_9
*340 TAP_32
*341 TAP_33
*342 TAP_34
*343 TAP_35
*344 TAP_36
*345 TAP_37
*346 TAP_38
*347 TAP_39
*348 TAP_40
*349 TAP_41
*350 TAP_42
*351 TAP_43
*352 TAP_44
*353 TAP_45
*354 TAP_46
*355 TAP_47
*356 TAP_48
*357 TAP_49
*358 TAP_50
*359 TAP_51
*360 TAP_52
*361 TAP_53
*362 TAP_54
*363 TAP_55
*364 TAP_56
*365 TAP_57
*366 TAP_58
*367 _106_
*368 _107_
*369 _108_
*370 _109_
*371 _110_
*372 _111_
*373 _112_
*374 _113_
*375 _114_
*376 _115_
*377 _116_
*378 _117_
*379 _118_
*380 _119_
*381 _120_
*382 _121_
*383 _122_
*384 _123_
*385 _124_
*386 _125_
*387 _126_
*388 _127_
*389 _128_
*390 _129_
*391 _130_
*392 _131_
*393 _132_
*394 _133_
*395 _134_
*396 _135_
*397 _136_
*398 _137_
*399 _138_
*400 _139_
*401 _140_
*402 _141_
*403 _142_
*404 _143_
*405 _144_
*406 _145_
*407 _146_
*408 _147_
*409 _148_
*410 _149_
*411 _150_
*412 _151_
*413 _152_
*414 _153_
*415 _154_
*416 _155_
*417 _156_
*418 _157_
*419 _158_
*420 _159_
*421 _160_
*422 _161_
*423 _162_
*424 _163_
*425 _164_
*426 _165_
*427 _166_
*428 _167_
*429 _168_
*430 _169_
*431 _170_
*432 _171_
*433 _172_
*434 _173_
*435 _174_
*436 _175_
*437 _176_
*438 _177_
*439 _178_
*440 _179_
*441 _180_
*442 _181_
*443 _182_
*444 _183_
*445 _184_
*446 _185_
*447 _186_
*448 _187_
*449 _188_
*450 _189_
*451 _190_
*452 _191_
*453 _192_
*454 _193_
*455 _194_
*456 _195_
*457 _196_
*458 _197_
*459 _198_
*460 _199_
*461 _200_
*462 _201_
*463 _202_
*464 _203_
*465 _204_
*466 _205_
*467 _206_
*468 _207_
*469 _208_
*470 _209_
*471 _210_
*472 _211_
*473 _212_
*474 _213_
*475 _214_
*476 _215_
*477 _216_
*478 _217_
*479 _218_
*480 _219_
*481 _220_
*482 input1
*483 input10
*484 input11
*485 input12
*486 input13
*487 input14
*488 input15
*489 input16
*490 input17
*491 input18
*492 input19
*493 input2
*494 input3
*495 input4
*496 input5
*497 input6
*498 input7
*499 input8
*500 input9
*501 output20
*502 output21
*503 output22
*504 output23
*505 output24
*506 output25
*507 output26
*508 output27
*509 output28

*PORTS
ALU_Out[0] O
ALU_Out[1] O
ALU_Out[2] O
ALU_Out[3] O
ALU_Out[4] O
ALU_Out[5] O
ALU_Out[6] O
ALU_Out[7] O
A[0] I
A[1] I
A[2] I
A[3] I
A[4] I
A[5] I
A[6] I
A[7] I
B[0] I
B[1] I
B[2] I
B[3] I
B[4] I
B[5] I
B[6] I
B[7] I
CarryOut O
opcode[0] I
opcode[1] I
opcode[2] I

*D_NET *1 0.00154226
*CONN
*P ALU_Out[0] O
*I *501:X O *D sky130_fd_sc_hd__clkbuf_4
*CAP
1 ALU_Out[0] 0.000107983
2 *501:X 0.000417416
3 *1:12 0.000525399
4 *1:12 *501:A 5.67058e-05
5 *1:12 *16:9 0.000182832
6 *1:12 *17:11 0.000251928
*RES
1 *501:X *1:12 48.3054 
2 *1:12 ALU_Out[0] 8.4144 
*END

*D_NET *2 0.00193636
*CONN
*P ALU_Out[1] O
*I *502:X O *D sky130_fd_sc_hd__clkbuf_4
*CAP
1 ALU_Out[1] 0.000542453
2 *502:X 0.000425727
3 *2:8 0.000968179
*RES
1 *502:X *2:8 45.2914 
2 *2:8 ALU_Out[1] 12.2214 
*END

*D_NET *3 0.000833522
*CONN
*P ALU_Out[2] O
*I *503:X O *D sky130_fd_sc_hd__clkbuf_4
*CAP
1 ALU_Out[2] 9.75781e-05
2 *503:X 0.000267249
3 *3:10 0.000364827
4 ALU_Out[2] *29:15 0
5 *3:10 *14:13 0.000103868
*RES
1 *503:X *3:10 42.8575 
2 *3:10 ALU_Out[2] 8.32853 
*END

*D_NET *4 0.000538376
*CONN
*P ALU_Out[3] O
*I *504:X O *D sky130_fd_sc_hd__clkbuf_4
*CAP
1 ALU_Out[3] 0.000269188
2 *504:X 0.000269188
*RES
1 *504:X ALU_Out[3] 49.1767 
*END

*D_NET *5 0.00111924
*CONN
*P ALU_Out[4] O
*I *505:X O *D sky130_fd_sc_hd__clkbuf_4
*CAP
1 ALU_Out[4] 0.000508424
2 *505:X 0.000508424
3 ALU_Out[4] *29:15 0
4 ALU_Out[4] *141:18 0.000102389
*RES
1 *505:X ALU_Out[4] 48.5021 
*END

*D_NET *6 0.00121987
*CONN
*P ALU_Out[5] O
*I *506:X O *D sky130_fd_sc_hd__clkbuf_4
*CAP
1 ALU_Out[5] 0.000536524
2 *506:X 0.000536524
3 ALU_Out[5] *141:18 0.000146822
*RES
1 *506:X ALU_Out[5] 48.9786 
*END

*D_NET *7 0.000743237
*CONN
*P ALU_Out[6] O
*I *507:X O *D sky130_fd_sc_hd__clkbuf_4
*CAP
1 ALU_Out[6] 0.000371618
2 *507:X 0.000371618
*RES
1 *507:X ALU_Out[6] 49.8042 
*END

*D_NET *8 0.00121992
*CONN
*P ALU_Out[7] O
*I *508:X O *D sky130_fd_sc_hd__clkbuf_4
*CAP
1 ALU_Out[7] 0.000593858
2 *508:X 0.000593858
3 ALU_Out[7] *508:A 3.22051e-05
4 ALU_Out[7] *22:17 0
*RES
1 *508:X ALU_Out[7] 49.745 
*END

*D_NET *9 0.0014815
*CONN
*P A[0] I
*I *482:A I *D sky130_fd_sc_hd__buf_1
*CAP
1 A[0] 0.000537099
2 *482:A 0
3 *9:11 0.000537099
4 *9:11 *12:17 5.47983e-06
5 *9:11 *15:15 3.23857e-06
6 *9:11 *19:17 6.84697e-05
7 *9:11 *137:10 2.97638e-05
8 *9:11 *139:12 5.50106e-05
9 *9:11 *162:8 0.000233367
10 *9:11 *162:10 1.19692e-05
*RES
1 A[0] *9:11 27.8014 
2 *9:11 *482:A 23 
*END

*D_NET *10 0.000604261
*CONN
*P A[1] I
*I *493:A I *D sky130_fd_sc_hd__clkbuf_2
*CAP
1 A[1] 0.000290284
2 *493:A 0.000290284
3 *493:A *492:A 0
4 *493:A *99:126 2.36931e-05
*RES
1 A[1] *493:A 49.1383 
*END

*D_NET *11 0.00118838
*CONN
*P A[2] I
*I *494:A I *D sky130_fd_sc_hd__clkbuf_2
*CAP
1 A[2] 0.000520363
2 *494:A 0.000520363
3 *494:A *141:18 0.000147656
*RES
1 A[2] *494:A 49.3307 
*END

*D_NET *12 0.00171854
*CONN
*P A[3] I
*I *495:A I *D sky130_fd_sc_hd__buf_1
*CAP
1 A[3] 0.000805596
2 *495:A 0
3 *12:17 0.000805596
4 *12:17 *15:15 8.48249e-05
5 *12:17 *19:17 1.70475e-05
6 *9:11 *12:17 5.47983e-06
*RES
1 A[3] *12:17 35.1287 
2 *12:17 *495:A 23 
*END

*D_NET *13 0.00064668
*CONN
*P A[4] I
*I *496:A I *D sky130_fd_sc_hd__buf_1
*CAP
1 A[4] 0.00032334
2 *496:A 0
3 *13:13 0.00032334
4 *13:13 *28:13 0
5 *13:13 *145:16 0
6 *13:13 *151:10 0
*RES
1 A[4] *13:13 27.5853 
2 *13:13 *496:A 23 
*END

*D_NET *14 0.0016892
*CONN
*P A[5] I
*I *497:A I *D sky130_fd_sc_hd__buf_1
*CAP
1 A[5] 0.000792663
2 *497:A 0
3 *14:13 0.000792663
4 *3:10 *14:13 0.000103868
*RES
1 A[5] *14:13 32.5243 
2 *14:13 *497:A 23 
*END

*D_NET *15 0.00170981
*CONN
*P A[6] I
*I *498:A I *D sky130_fd_sc_hd__buf_1
*CAP
1 A[6] 0.000582933
2 *498:A 0
3 *15:15 0.000582933
4 *15:15 *19:17 0.000455875
5 *9:11 *15:15 3.23857e-06
6 *12:17 *15:15 8.48249e-05
*RES
1 A[6] *15:15 29.7486 
2 *15:15 *498:A 23 
*END

*D_NET *16 0.00166342
*CONN
*P A[7] I
*I *499:A I *D sky130_fd_sc_hd__buf_2
*CAP
1 A[7] 0.00071279
2 *499:A 0
3 *16:9 0.00071279
4 *16:9 *17:11 5.50106e-05
5 *1:12 *16:9 0.000182832
*RES
1 A[7] *16:9 30.9914 
2 *16:9 *499:A 23 
*END

*D_NET *17 0.00166019
*CONN
*P B[0] I
*I *500:A I *D sky130_fd_sc_hd__buf_1
*CAP
1 B[0] 0.000630051
2 *500:A 0
3 *17:11 0.000630051
4 *17:11 *501:A 5.50106e-05
5 *17:11 *163:8 3.81391e-05
6 *1:12 *17:11 0.000251928
7 *16:9 *17:11 5.50106e-05
*RES
1 B[0] *17:11 29.935 
2 *17:11 *500:A 23 
*END

*D_NET *18 0.0014199
*CONN
*P B[1] I
*I *483:A I *D sky130_fd_sc_hd__dlymetal6s2s_1
*CAP
1 B[1] 0.000492808
2 *483:A 0.000492808
3 *483:A *137:16 0.000148698
4 *483:A *137:26 3.36312e-06
5 *483:A *164:17 0.000227208
6 *483:A *164:36 5.50106e-05
*RES
1 B[1] *483:A 49.7036 
*END

*D_NET *19 0.00162404
*CONN
*P B[2] I
*I *484:A I *D sky130_fd_sc_hd__dlymetal6s2s_1
*CAP
1 B[2] 0.000483908
2 *484:A 0
3 *19:17 0.000483908
4 *19:17 *137:10 0.000102389
5 *19:17 *162:8 1.24418e-05
6 *9:11 *19:17 6.84697e-05
7 *12:17 *19:17 1.70475e-05
8 *15:15 *19:17 0.000455875
*RES
1 B[2] *19:17 33.6102 
2 *19:17 *484:A 23 
*END

*D_NET *20 0.00104643
*CONN
*P B[3] I
*I *485:A I *D sky130_fd_sc_hd__buf_1
*CAP
1 B[3] 0.000523214
2 *485:A 0
3 *20:15 0.000523214
4 *20:15 *139:22 0
5 *20:15 *163:16 0
*RES
1 B[3] *20:15 27.1179 
2 *20:15 *485:A 23 
*END

*D_NET *21 0.00145648
*CONN
*P B[4] I
*I *486:A I *D sky130_fd_sc_hd__buf_1
*CAP
1 B[4] 0.000607575
2 *486:A 0
3 *21:17 0.000607575
4 *21:17 *150:28 0.000153449
5 *21:17 *156:10 8.78864e-05
*RES
1 B[4] *21:17 27.8373 
2 *21:17 *486:A 23 
*END

*D_NET *22 0.00137078
*CONN
*P B[5] I
*I *487:A I *D sky130_fd_sc_hd__buf_1
*CAP
1 B[5] 0.00067917
2 *487:A 0
3 *22:17 0.00067917
4 *22:17 *508:A 1.24376e-05
5 ALU_Out[7] *22:17 0
*RES
1 B[5] *22:17 30.6544 
2 *22:17 *487:A 23 
*END

*D_NET *23 0.000706816
*CONN
*P B[6] I
*I *488:A I *D sky130_fd_sc_hd__buf_1
*CAP
1 B[6] 0.000353408
2 *488:A 0
3 *23:13 0.000353408
4 *23:13 *160:12 0
*RES
1 B[6] *23:13 28.2896 
2 *23:13 *488:A 23 
*END

*D_NET *24 0.00107282
*CONN
*P B[7] I
*I *489:A I *D sky130_fd_sc_hd__buf_2
*CAP
1 B[7] 0.000501708
2 *489:A 0.000501708
3 *489:A *141:18 5.58003e-05
4 *489:A *142:39 1.35999e-05
*RES
1 B[7] *489:A 48.73 
*END

*D_NET *25 0.00136063
*CONN
*P CarryOut O
*I *509:X O *D sky130_fd_sc_hd__clkbuf_4
*CAP
1 CarryOut 0.000535283
2 *509:X 0.000535283
3 CarryOut *509:A 0.000183733
4 CarryOut *139:22 8.31289e-05
5 CarryOut *164:36 2.32004e-05
*RES
1 *509:X CarryOut 48.5229 
*END

*D_NET *28 0.00062331
*CONN
*P opcode[0] I
*I *490:A I *D sky130_fd_sc_hd__clkbuf_2
*CAP
1 opcode[0] 0.000309799
2 *490:A 0
3 *28:13 0.000309799
4 *28:13 *145:8 3.7122e-06
5 *28:13 *145:10 0
6 *13:13 *28:13 0
*RES
1 opcode[0] *28:13 27.0053 
2 *28:13 *490:A 23 
*END

*D_NET *29 0.00179168
*CONN
*P opcode[1] I
*I *491:A I *D sky130_fd_sc_hd__clkbuf_2
*CAP
1 opcode[1] 0.000893044
2 *491:A 0
3 *29:15 0.000893044
4 *29:15 *141:22 5.58975e-06
5 ALU_Out[2] *29:15 0
6 ALU_Out[4] *29:15 0
*RES
1 opcode[1] *29:15 32.4857 
2 *29:15 *491:A 23 
*END

*D_NET *30 0.00047099
*CONN
*P opcode[2] I
*I *492:A I *D sky130_fd_sc_hd__buf_2
*CAP
1 opcode[2] 0.000235495
2 *492:A 0.000235495
3 *493:A *492:A 0
*RES
1 opcode[2] *492:A 49.0525 
*END

*D_NET *31 0.0138961
*CONN
*I *480:B1 I *D sky130_fd_sc_hd__a21oi_1
*I *473:A1 I *D sky130_fd_sc_hd__o211ai_1
*I *449:A1 I *D sky130_fd_sc_hd__o211ai_1
*I *438:X O *D sky130_fd_sc_hd__or3_2
*CAP
1 *480:B1 0
2 *473:A1 0
3 *449:A1 0
4 *438:X 0.00032643
5 *31:62 0.000512365
6 *31:43 0.000660992
7 *31:27 0.00414832
8 *31:16 0.00117754
9 *31:8 0.00447894
10 *31:8 *120:32 0.000445841
11 *31:16 *440:A 5.82853e-05
12 *31:16 *440:B 2.95526e-05
13 *31:16 *447:A2 0.000154682
14 *31:16 *449:B1 1.38615e-05
15 *31:16 *33:21 1.61385e-05
16 *31:16 *33:40 8.58878e-05
17 *31:16 *99:46 0.000101884
18 *31:16 *101:8 0.000176248
19 *31:16 *107:8 1.0092e-05
20 *31:16 *145:40 6.90927e-05
21 *31:27 *107:8 0.000121717
22 *31:27 *113:34 0
23 *31:27 *143:22 0
24 *31:27 *158:34 0.000110998
25 *31:43 *473:B1 5.56356e-05
26 *31:43 *473:C1 5.26648e-05
27 *31:43 *60:8 8.71559e-05
28 *31:43 *150:28 0.000262844
29 *31:62 *99:126 7.39318e-05
30 *31:62 *148:14 0.00020753
31 *31:62 *150:28 0.000457424
*RES
1 *438:X *31:8 42.9093 
2 *31:8 *31:16 36.2736 
3 *31:16 *449:A1 23 
4 *31:8 *31:27 14.8947 
5 *31:27 *31:43 29.2177 
6 *31:43 *473:A1 23 
7 *31:27 *31:62 34.1737 
8 *31:62 *480:B1 23 
*END

*D_NET *32 0.00409407
*CONN
*I *441:A I *D sky130_fd_sc_hd__xnor2_1
*I *439:Y O *D sky130_fd_sc_hd__nand2_1
*CAP
1 *441:A 0
2 *439:Y 0.000180892
3 *32:22 0.00121276
4 *32:8 0.00139365
5 *32:8 *439:A 3.7122e-06
6 *32:8 *147:28 7.26403e-05
7 *32:22 *404:B1 0.000162416
8 *32:22 *445:C 4.70479e-05
9 *32:22 *447:A1 5.91105e-05
10 *32:22 *447:A2 9.63678e-05
11 *32:22 *33:14 0.00035746
12 *32:22 *33:40 1.35714e-05
13 *32:22 *99:46 0.000490022
14 *32:22 *122:44 4.41821e-06
*RES
1 *439:Y *32:8 40.5271 
2 *32:8 *32:22 37.9514 
3 *32:22 *441:A 23 
*END

*D_NET *33 0.00270941
*CONN
*I *444:B1 I *D sky130_fd_sc_hd__o211a_1
*I *442:A I *D sky130_fd_sc_hd__nor2_1
*I *441:B I *D sky130_fd_sc_hd__xnor2_1
*I *440:Y O *D sky130_fd_sc_hd__nor2_1
*CAP
1 *444:B1 0
2 *442:A 1.43659e-05
3 *441:B 0
4 *440:Y 0
5 *33:40 0.000218304
6 *33:21 0.000338916
7 *33:14 0.00027134
8 *33:4 0.000377585
9 *442:A *442:B 1.9054e-05
10 *33:14 *449:B1 6.60665e-05
11 *33:14 *35:10 0.000140875
12 *33:14 *38:8 8.78864e-05
13 *33:14 *105:23 2.4867e-05
14 *33:21 *440:A 2.95423e-05
15 *33:21 *35:10 0.000148252
16 *33:21 *101:8 0.000124884
17 *33:40 *444:A2 4.344e-05
18 *33:40 *445:B 0.000185623
19 *33:40 *35:10 2.95423e-05
20 *33:40 *99:46 2.95526e-05
21 *33:40 *101:8 2.50118e-05
22 *33:40 *139:30 6.12479e-05
23 *31:16 *33:21 1.61385e-05
24 *31:16 *33:40 8.58878e-05
25 *32:22 *33:14 0.00035746
26 *32:22 *33:40 1.35714e-05
*RES
1 *440:Y *33:4 23 
2 *33:4 *33:14 36.7114 
3 *33:14 *441:B 23 
4 *33:4 *33:21 3.48 
5 *33:21 *442:A 23.4971 
6 *33:21 *33:40 35.7793 
7 *33:40 *444:B1 23 
*END

*D_NET *34 0.000403132
*CONN
*I *449:A2 I *D sky130_fd_sc_hd__o211ai_1
*I *441:Y O *D sky130_fd_sc_hd__xnor2_1
*CAP
1 *449:A2 7.12869e-05
2 *441:Y 5.82533e-05
3 *34:8 0.00012954
4 *449:A2 *449:B1 5.68958e-05
5 *34:8 *449:C1 8.71559e-05
*RES
1 *441:Y *34:8 39.2014 
2 *34:8 *449:A2 39.0979 
*END

*D_NET *35 0.00119825
*CONN
*I *445:A I *D sky130_fd_sc_hd__or4b_1
*I *442:Y O *D sky130_fd_sc_hd__nor2_1
*CAP
1 *445:A 0
2 *442:Y 0.0003451
3 *35:10 0.0003451
4 *35:10 *442:B 7.61229e-06
5 *35:10 *101:8 7.64059e-06
6 *35:10 *101:21 0.000168678
7 *35:10 *105:23 5.44889e-06
8 *33:14 *35:10 0.000140875
9 *33:21 *35:10 0.000148252
10 *33:40 *35:10 2.95423e-05
*RES
1 *442:Y *35:10 44.2143 
2 *35:10 *445:A 38 
*END

*D_NET *36 0.000812232
*CONN
*I *444:A2 I *D sky130_fd_sc_hd__o211a_1
*I *443:Y O *D sky130_fd_sc_hd__inv_2
*CAP
1 *444:A2 0.000177735
2 *443:Y 6.81525e-05
3 *36:8 0.000245887
4 *444:A2 *386:C 1.8788e-05
5 *444:A2 *444:C1 5.56279e-05
6 *444:A2 *445:B 3.54579e-05
7 *444:A2 *81:18 2.64616e-05
8 *444:A2 *91:8 5.56356e-05
9 *36:8 *91:10 8.50457e-05
10 *33:40 *444:A2 4.344e-05
*RES
1 *443:Y *36:8 39.2014 
2 *36:8 *444:A2 41.9979 
*END

*D_NET *37 0.000311488
*CONN
*I *445:C I *D sky130_fd_sc_hd__or4b_1
*I *444:X O *D sky130_fd_sc_hd__o211a_1
*CAP
1 *445:C 6.78664e-05
2 *444:X 6.78664e-05
3 *445:C *445:B 9.91548e-05
4 *445:C *99:46 2.95526e-05
5 *32:22 *445:C 4.70479e-05
*RES
1 *444:X *445:C 48.0507 
*END

*D_NET *38 0.000728733
*CONN
*I *449:B1 I *D sky130_fd_sc_hd__o211ai_1
*I *445:X O *D sky130_fd_sc_hd__or4b_1
*CAP
1 *449:B1 0.000137364
2 *445:X 4.31693e-05
3 *38:8 0.000180533
4 *449:B1 *440:B 5.58003e-05
5 *38:8 *105:23 8.71559e-05
6 *449:A2 *449:B1 5.68958e-05
7 *31:16 *449:B1 1.38615e-05
8 *33:14 *449:B1 6.60665e-05
9 *33:14 *38:8 8.78864e-05
*RES
1 *445:X *38:8 39.2014 
2 *38:8 *449:B1 41.3764 
*END

*D_NET *39 0.00388382
*CONN
*I *471:B1 I *D sky130_fd_sc_hd__o21a_1
*I *447:B1 I *D sky130_fd_sc_hd__o21a_1
*I *446:Y O *D sky130_fd_sc_hd__nand2_1
*CAP
1 *471:B1 0
2 *447:B1 3.56555e-05
3 *446:Y 6.28105e-05
4 *39:27 0.000866452
5 *39:6 0.000964918
6 *447:B1 *447:A2 5.55743e-06
7 *39:6 *447:A2 3.7122e-06
8 *39:6 *448:B1 0.000145163
9 *39:6 *105:38 0.000230718
10 *39:27 *379:A 5.3304e-05
11 *39:27 *379:B 6.11077e-05
12 *39:27 *381:A 0.000225478
13 *39:27 *434:A 0.000318912
14 *39:27 *447:A1 9.65021e-05
15 *39:27 *447:A2 9.86777e-06
16 *39:27 *471:A1 3.23857e-06
17 *39:27 *472:B1 0.000102389
18 *39:27 *84:6 0.000261458
19 *39:27 *105:38 5.3304e-05
20 *39:27 *106:10 5.82853e-05
21 *39:27 *120:81 6.64771e-05
22 *39:27 *121:62 8.48502e-06
23 *39:27 *122:54 4.50657e-05
24 *39:27 *134:10 9.65021e-05
25 *39:27 *136:8 8.78864e-05
26 *39:27 *163:16 2.0576e-05
*RES
1 *446:Y *39:6 25.5271 
2 *39:6 *447:B1 23.8493 
3 *39:6 *39:27 47.9593 
4 *39:27 *471:B1 23 
*END

*D_NET *40 0.000462754
*CONN
*I *448:B1 I *D sky130_fd_sc_hd__o2bb2a_1
*I *447:X O *D sky130_fd_sc_hd__o21a_1
*CAP
1 *448:B1 9.51204e-05
2 *447:X 9.51204e-05
3 *448:B1 *448:B2 5.5792e-05
4 *448:B1 *105:38 1.57659e-05
5 *448:B1 *115:48 5.5792e-05
6 *39:6 *448:B1 0.000145163
*RES
1 *447:X *448:B1 48.5271 
*END

*D_NET *41 0.00201549
*CONN
*I *449:C1 I *D sky130_fd_sc_hd__o211ai_1
*I *448:X O *D sky130_fd_sc_hd__o2bb2a_1
*CAP
1 *449:C1 0.000491151
2 *448:X 3.85043e-05
3 *41:8 0.000529655
4 *449:C1 *115:10 1.79668e-05
5 *449:C1 *116:16 0.000766053
6 *449:C1 *120:20 6.66613e-05
7 *41:8 *448:A2_N 1.83408e-05
8 *34:8 *449:C1 8.71559e-05
*RES
1 *448:X *41:8 38.6214 
2 *41:8 *449:C1 49.7657 
*END

*D_NET *42 0.00127991
*CONN
*I *457:A1 I *D sky130_fd_sc_hd__a311o_1
*I *450:Y O *D sky130_fd_sc_hd__nand2_1
*CAP
1 *457:A1 1.2297e-05
2 *450:Y 0.000567467
3 *42:12 0.000579764
4 *457:A1 *46:21 2.26406e-05
5 *457:A1 *99:65 4.77164e-06
6 *457:A1 *99:90 5.08422e-06
7 *42:12 *43:10 0
8 *42:12 *120:103 8.78864e-05
9 *42:12 *143:22 0
10 *42:12 *146:18 0
*RES
1 *450:Y *42:12 48.4726 
2 *42:12 *457:A1 46.3211 
*END

*D_NET *43 0.000579653
*CONN
*I *457:A3 I *D sky130_fd_sc_hd__a311o_1
*I *451:X O *D sky130_fd_sc_hd__or2_1
*CAP
1 *457:A3 0
2 *451:X 0.000177408
3 *43:10 0.000177408
4 *43:10 *452:A1 8.29264e-05
5 *43:10 *46:8 1.0092e-05
6 *43:10 *46:21 0.000121294
7 *43:10 *80:53 1.05235e-05
8 *42:12 *43:10 0
*RES
1 *451:X *43:10 40.5271 
2 *43:10 *457:A3 38 
*END

*D_NET *44 0.000180318
*CONN
*I *453:A2 I *D sky130_fd_sc_hd__o21a_1
*I *452:X O *D sky130_fd_sc_hd__mux2_1
*CAP
1 *453:A2 5.93851e-05
2 *452:X 5.93851e-05
3 *453:A2 *121:14 2.93431e-05
4 *453:A2 *121:37 3.22051e-05
*RES
1 *452:X *453:A2 47.0979 
*END

*D_NET *45 0.00196625
*CONN
*I *457:B1 I *D sky130_fd_sc_hd__a311o_1
*I *453:X O *D sky130_fd_sc_hd__o21a_1
*CAP
1 *457:B1 0
2 *453:X 0.00059704
3 *45:12 0.00059704
4 *45:12 *452:A1 0.000229195
5 *45:12 *452:S 2.93431e-05
6 *45:12 *457:A2 9.43509e-05
7 *45:12 *121:14 9.65021e-05
8 *45:12 *121:37 0.000322782
*RES
1 *453:X *45:12 34.6414 
2 *45:12 *457:B1 23 
*END

*D_NET *46 0.00244325
*CONN
*I *459:A2 I *D sky130_fd_sc_hd__a21o_1
*I *458:B I *D sky130_fd_sc_hd__nand3_1
*I *456:A I *D sky130_fd_sc_hd__and3_1
*I *454:X O *D sky130_fd_sc_hd__or3_1
*CAP
1 *459:A2 0.000168557
2 *458:B 5.83745e-05
3 *456:A 6.0019e-05
4 *454:X 0.000160983
5 *46:21 0.000456429
6 *46:8 0.0004505
7 *456:A *91:22 1.84917e-05
8 *458:B *458:A 1.12796e-05
9 *458:B *78:38 4.36915e-05
10 *458:B *92:16 0.000140259
11 *458:B *99:90 1.29376e-05
12 *458:B *108:20 5.67058e-05
13 *459:A2 *459:A1 2.95423e-05
14 *459:A2 *108:12 3.51812e-06
15 *459:A2 *108:20 9.04071e-05
16 *459:A2 *153:10 0.000109253
17 *459:A2 *161:6 5.5792e-05
18 *46:8 *452:A1 4.67708e-05
19 *46:8 *47:8 2.84201e-05
20 *46:8 *80:53 0.000110258
21 *46:8 *113:60 3.88629e-05
22 *46:21 *99:65 2.08421e-05
23 *46:21 *99:90 5.88495e-05
24 *46:21 *153:10 5.84798e-05
25 *457:A1 *46:21 2.26406e-05
26 *43:10 *46:8 1.0092e-05
27 *43:10 *46:21 0.000121294
*RES
1 *454:X *46:8 40.9621 
2 *46:8 *456:A 39.1186 
3 *46:8 *46:21 4.72286 
4 *46:21 *458:B 40.0714 
5 *46:21 *459:A2 42.4329 
*END

*D_NET *47 0.00105638
*CONN
*I *456:C I *D sky130_fd_sc_hd__and3_1
*I *455:Y O *D sky130_fd_sc_hd__o21ai_1
*CAP
1 *456:C 1.75047e-05
2 *455:Y 0.000245422
3 *47:8 0.000262927
4 *456:C *91:22 5.83345e-06
5 *47:8 *455:B1 1.90892e-05
6 *47:8 *99:65 0.000312423
7 *47:8 *113:60 0.000164765
8 *46:8 *47:8 2.84201e-05
*RES
1 *455:Y *47:8 43.4271 
2 *47:8 *456:C 38.2279 
*END

*D_NET *48 0.000463845
*CONN
*I *457:C1 I *D sky130_fd_sc_hd__a311o_1
*I *456:X O *D sky130_fd_sc_hd__and3_1
*CAP
1 *457:C1 3.21736e-05
2 *456:X 7.06527e-05
3 *48:8 0.000102826
4 *457:C1 *80:14 2.64616e-05
5 *457:C1 *121:37 2.64616e-05
6 *48:8 *80:10 6.24949e-05
7 *48:8 *80:18 8.57485e-05
8 *48:8 *92:16 1.01436e-05
9 *48:8 *99:65 4.6882e-05
10 *48:8 *109:8 0
*RES
1 *456:X *48:8 39.9057 
2 *48:8 *457:C1 38.6214 
*END

*D_NET *49 0.00077062
*CONN
*I *465:A2 I *D sky130_fd_sc_hd__a31o_1
*I *458:Y O *D sky130_fd_sc_hd__nand3_1
*CAP
1 *465:A2 0
2 *458:Y 0.00024492
3 *49:10 0.00024492
4 *49:10 *406:A 5.82853e-05
5 *49:10 *406:B 0.000102971
6 *49:10 *55:10 6.35124e-05
7 *49:10 *78:38 1.35999e-05
8 *49:10 *99:90 4.24114e-05
*RES
1 *458:Y *49:10 42.4329 
2 *49:10 *465:A2 38 
*END

*D_NET *50 0.000358222
*CONN
*I *465:A3 I *D sky130_fd_sc_hd__a31o_1
*I *459:X O *D sky130_fd_sc_hd__a21o_1
*CAP
1 *465:A3 2.91105e-05
2 *459:X 2.91105e-05
3 *465:A3 *108:12 0.000192342
4 *465:A3 *161:6 0.00010766
*RES
1 *459:X *465:A3 48.0507 
*END

*D_NET *51 0.00167808
*CONN
*I *464:A1 I *D sky130_fd_sc_hd__a31o_1
*I *460:X O *D sky130_fd_sc_hd__or2_1
*CAP
1 *464:A1 5.34024e-05
2 *460:X 0.000347735
3 *51:10 0.000401138
4 *464:A1 *463:A1_N 0.00018536
5 *464:A1 *464:B1 0.000100061
6 *464:A1 *99:98 2.81043e-05
7 *51:10 *460:A 2.07242e-05
8 *51:10 *460:B 2.32101e-05
9 *51:10 *477:A3 5.41385e-05
10 *51:10 *77:10 0.000163273
11 *51:10 *94:10 0.000164193
12 *51:10 *121:37 0.000136738
*RES
1 *460:X *51:10 44.2143 
2 *51:10 *464:A1 40.0507 
*END

*D_NET *52 0.000560121
*CONN
*I *464:A3 I *D sky130_fd_sc_hd__a31o_1
*I *461:Y O *D sky130_fd_sc_hd__nand2_1
*CAP
1 *464:A3 0
2 *461:Y 0.000158934
3 *52:10 0.000158934
4 *52:10 *113:71 0.000139865
5 *52:10 *121:37 0.000102389
*RES
1 *461:Y *52:10 41.0036 
2 *52:10 *464:A3 38 
*END

*D_NET *53 0.00107486
*CONN
*I *463:A2_N I *D sky130_fd_sc_hd__a2bb2o_1
*I *462:Y O *D sky130_fd_sc_hd__a21oi_1
*CAP
1 *463:A2_N 0
2 *462:Y 0.000301471
3 *53:10 0.000301471
4 *53:10 *462:A2 3.43151e-05
5 *53:10 *463:B1 0
6 *53:10 *77:10 6.7177e-06
7 *53:10 *94:10 0.000242538
8 *53:10 *100:10 0
9 *53:10 *121:37 0.00018835
*RES
1 *462:Y *53:10 44.2039 
2 *53:10 *463:A2_N 38 
*END

*D_NET *54 0.000253339
*CONN
*I *464:B1 I *D sky130_fd_sc_hd__a31o_1
*I *463:X O *D sky130_fd_sc_hd__a2bb2o_1
*CAP
1 *464:B1 4.96271e-05
2 *463:X 4.96271e-05
3 *464:B1 *99:98 5.40241e-05
4 *464:A1 *464:B1 0.000100061
*RES
1 *463:X *464:B1 47.595 
*END

*D_NET *55 0.000858246
*CONN
*I *465:B1 I *D sky130_fd_sc_hd__a31o_1
*I *464:X O *D sky130_fd_sc_hd__a31o_1
*CAP
1 *465:B1 0
2 *464:X 0.00026351
3 *55:10 0.00026351
4 *55:10 *406:A 0.000144494
5 *55:10 *463:A1_N 9.65021e-05
6 *55:10 *76:32 2.67179e-05
7 *49:10 *55:10 6.35124e-05
*RES
1 *464:X *55:10 42.4329 
2 *55:10 *465:B1 38 
*END

*D_NET *56 0.00241979
*CONN
*I *467:A I *D sky130_fd_sc_hd__xnor2_1
*I *466:Y O *D sky130_fd_sc_hd__nand2_1
*CAP
1 *467:A 0.000280233
2 *466:Y 0.000342199
3 *56:12 0.000622432
4 *467:A *394:A1 0.000156141
5 *467:A *468:B 4.33069e-05
6 *467:A *62:10 0.000165384
7 *467:A *72:10 0.000211019
8 *467:A *72:16 0.000136472
9 *467:A *74:10 0.000213552
10 *467:A *74:27 3.18767e-05
11 *467:A *95:20 7.66914e-06
12 *56:12 *370:B 2.64616e-05
13 *56:12 *73:10 5.3304e-05
14 *56:12 *100:26 5.58003e-05
15 *56:12 *143:22 4.92962e-05
16 *56:12 *143:31 2.46387e-05
*RES
1 *466:Y *56:12 43.075 
2 *56:12 *467:A 46.2443 
*END

*D_NET *57 0.000500054
*CONN
*I *473:A2 I *D sky130_fd_sc_hd__o211ai_1
*I *467:Y O *D sky130_fd_sc_hd__xnor2_1
*CAP
1 *473:A2 0
2 *467:Y 0.000120394
3 *57:10 0.000120394
4 *57:10 *58:8 5.56279e-05
5 *57:10 *60:8 0.0001366
6 *57:10 *162:10 6.70389e-05
*RES
1 *467:Y *57:10 40.5271 
2 *57:10 *473:A2 38 
*END

*D_NET *58 0.000912493
*CONN
*I *470:A I *D sky130_fd_sc_hd__or3b_1
*I *468:Y O *D sky130_fd_sc_hd__nor2_1
*CAP
1 *470:A 0
2 *468:Y 0.000356385
3 *58:8 0.000356385
4 *58:8 *468:A 0.000104578
5 *58:8 *468:B 1.61385e-05
6 *58:8 *74:27 2.33782e-05
7 *57:10 *58:8 5.56279e-05
*RES
1 *468:Y *58:8 29.3593 
2 *58:8 *470:A 23 
*END

*D_NET *59 0.000401234
*CONN
*I *470:B I *D sky130_fd_sc_hd__or3b_1
*I *469:X O *D sky130_fd_sc_hd__and2_1
*CAP
1 *470:B 0
2 *469:X 0.000154232
3 *59:10 0.000154232
4 *59:10 *147:10 7.73333e-06
5 *59:10 *150:28 8.50366e-05
*RES
1 *469:X *59:10 40.2993 
2 *59:10 *470:B 38 
*END

*D_NET *60 0.000528111
*CONN
*I *473:B1 I *D sky130_fd_sc_hd__o211ai_1
*I *470:X O *D sky130_fd_sc_hd__or3b_1
*CAP
1 *473:B1 1.17588e-05
2 *470:X 7.7782e-05
3 *60:8 8.95408e-05
4 *473:B1 *473:C1 5.79559e-05
5 *60:8 *150:28 1.16814e-05
6 *31:43 *473:B1 5.56356e-05
7 *31:43 *60:8 8.71559e-05
8 *57:10 *60:8 0.0001366
*RES
1 *470:X *60:8 39.9057 
2 *60:8 *473:B1 38.6214 
*END

*D_NET *61 0.000617852
*CONN
*I *472:B1 I *D sky130_fd_sc_hd__o2bb2a_1
*I *471:X O *D sky130_fd_sc_hd__o21a_1
*CAP
1 *472:B1 8.96651e-05
2 *471:X 8.96651e-05
3 *472:B1 *471:A1 1.83408e-05
4 *472:B1 *120:81 2.83952e-05
5 *472:B1 *122:54 0.000190407
6 *472:B1 *122:67 9.89901e-05
7 *39:27 *472:B1 0.000102389
*RES
1 *471:X *472:B1 49.5007 
*END

*D_NET *62 0.0019496
*CONN
*I *473:C1 I *D sky130_fd_sc_hd__o211ai_1
*I *472:X O *D sky130_fd_sc_hd__o2bb2a_1
*CAP
1 *473:C1 0.000228531
2 *472:X 0.000424054
3 *62:10 0.000652585
4 *62:10 *469:B 9.67816e-05
5 *62:10 *72:16 3.19411e-05
6 *62:10 *74:27 0.000138747
7 *62:10 *162:10 0.00010096
8 *467:A *62:10 0.000165384
9 *473:B1 *473:C1 5.79559e-05
10 *31:43 *473:C1 5.26648e-05
*RES
1 *472:X *62:10 46.2029 
2 *62:10 *473:C1 41.9771 
*END

*D_NET *63 0.000683308
*CONN
*I *481:A2 I *D sky130_fd_sc_hd__a211o_1
*I *474:X O *D sky130_fd_sc_hd__xor2_1
*CAP
1 *481:A2 0.000260326
2 *474:X 0.000260326
3 *481:A2 *481:A1 2.43499e-05
4 *481:A2 *99:106 6.30327e-05
5 *481:A2 *99:126 7.16962e-05
6 *481:A2 *156:10 3.5781e-06
*RES
1 *474:X *481:A2 49.7286 
*END

*D_NET *64 0.000437478
*CONN
*I *476:B2 I *D sky130_fd_sc_hd__o22a_1
*I *475:Y O *D sky130_fd_sc_hd__a21oi_1
*CAP
1 *476:B2 9.15602e-05
2 *475:Y 9.15602e-05
3 *476:B2 *409:A2 5.47983e-06
4 *476:B2 *475:A1 1.59071e-05
5 *476:B2 *476:B1 3.56809e-05
6 *476:B2 *65:10 3.22051e-05
7 *476:B2 *144:18 1.09903e-05
8 *476:B2 *163:37 0.000154094
*RES
1 *475:Y *476:B2 49.045 
*END

*D_NET *65 0.0012877
*CONN
*I *477:B1 I *D sky130_fd_sc_hd__a31o_1
*I *476:X O *D sky130_fd_sc_hd__o22a_1
*CAP
1 *477:B1 7.30151e-05
2 *476:X 0.000271649
3 *65:10 0.000344664
4 *477:B1 *477:A3 0.000188934
5 *65:10 *100:10 0.000138152
6 *65:10 *100:16 0.000220665
7 *65:10 *144:16 0
8 *65:10 *163:37 1.84125e-05
9 *476:B2 *65:10 3.22051e-05
*RES
1 *476:X *65:10 43.8207 
2 *65:10 *477:B1 40.0507 
*END

*D_NET *66 0.0024747
*CONN
*I *481:B1 I *D sky130_fd_sc_hd__a211o_1
*I *477:X O *D sky130_fd_sc_hd__a31o_1
*CAP
1 *481:B1 0.000352926
2 *477:X 0.000477719
3 *66:10 0.000830645
4 *481:B1 *412:A1 0.000100486