*SPEF "ieee 1481-1999"
*DESIGN "alu_8bit"
*DATE "11:11:11 Fri 11 11, 1111"
*VENDOR "OpenRCX"
*PROGRAM "Parallel Extraction"
*VERSION "1.0"
*DESIGN_FLOW "NAME_SCOPE LOCAL" "PIN_CAP NONE"
*DIVIDER /
*DELIMITER :
*BUS_DELIMITER []
*T_UNIT 1 NS
*C_UNIT 1 PF
*R_UNIT 1 OHM
*L_UNIT 1 HENRY

*NAME_MAP
*1 ALU_Out[0]
*2 ALU_Out[1]
*3 ALU_Out[2]
*4 ALU_Out[3]
*5 ALU_Out[4]
*6 ALU_Out[5]
*7 ALU_Out[6]
*8 ALU_Out[7]
*9 A[0]
*10 A[1]
*11 A[2]
*12 A[3]
*13 A[4]
*14 A[5]
*15 A[6]
*16 A[7]
*17 B[0]
*18 B[1]
*19 B[2]
*20 B[3]
*21 B[4]
*22 B[5]
*23 B[6]
*24 B[7]
*25 CarryOut
*28 opcode[0]
*29 opcode[1]
*30 opcode[2]
*31 _000_
*32 _001_
*33 _002_
*34 _003_
*35 _004_
*36 _005_
*37 _006_
*38 _007_
*39 _008_
*40 _009_
*41 _010_
*42 _011_
*43 _012_
*44 _013_
*45 _014_
*46 _015_
*47 _016_
*48 _017_
*49 _018_
*50 _019_
*51 _020_
*52 _021_
*53 _022_
*54 _023_
*55 _024_
*56 _025_
*57 _026_
*58 _027_
*59 _028_
*60 _029_
*61 _030_
*62 _031_
*63 _032_
*64 _033_
*65 _034_
*66 _035_
*67 _036_
*68 _037_
*69 _038_
*70 _039_
*71 _040_
*72 _041_
*73 _042_
*74 _043_
*75 _044_
*76 _045_
*77 _046_
*78 _047_
*79 _048_
*80 _049_
*81 _050_
*82 _051_
*83 _052_
*84 _053_
*85 _054_
*86 _055_
*87 _056_
*88 _057_
*89 _058_
*90 _059_
*91 _060_
*92 _061_
*93 _062_
*94 _063_
*95 _064_
*96 _065_
*97 _066_
*98 _067_
*99 _068_
*100 _069_
*101 _070_
*102 _071_
*103 _072_
*104 _073_
*105 _074_
*106 _075_
*107 _076_
*108 _077_
*109 _078_
*110 _079_
*111 _080_
*112 _081_
*113 _082_
*114 _083_
*115 _084_
*116 _085_
*117 _086_
*118 _087_
*119 _088_
*120 _089_
*121 _090_
*122 _091_
*123 _092_
*124 _093_
*125 _094_
*126 _095_
*127 _096_
*128 _097_
*129 _098_
*130 _099_
*131 _100_
*132 _101_
*133 _102_
*134 _103_
*135 _104_
*136 _105_
*137 net1
*138 net10
*139 net11
*140 net12
*141 net13
*142 net14
*143 net15
*144 net16
*145 net17
*146 net18
*147 net19
*148 net2
*149 net20
*150 net21
*151 net22
*152 net23
*153 net24
*154 net25
*155 net26
*156 net27
*157 net28
*158 net3
*159 net4
*160 net5
*161 net6
*162 net7
*163 net8
*164 net9
*165 FILLER_0_0_16
*166 FILLER_0_0_21
*167 FILLER_0_0_27
*168 FILLER_0_0_39
*169 FILLER_0_0_48
*170 FILLER_0_0_63
*171 FILLER_0_0_69
*172 FILLER_0_0_73
*173 FILLER_0_10_15
*174 FILLER_0_10_3
*175 FILLER_0_10_38
*176 FILLER_0_10_50
*177 FILLER_0_10_54
*178 FILLER_0_10_73
*179 FILLER_0_10_91
*180 FILLER_0_11_22
*181 FILLER_0_11_29
*182 FILLER_0_11_41
*183 FILLER_0_11_49
*184 FILLER_0_11_54
*185 FILLER_0_11_57
*186 FILLER_0_11_6
*187 FILLER_0_11_69
*188 FILLER_0_11_77
*189 FILLER_0_11_83
*190 FILLER_0_11_88
*191 FILLER_0_12_29
*192 FILLER_0_12_3
*193 FILLER_0_12_33
*194 FILLER_0_12_38
*195 FILLER_0_12_56
*196 FILLER_0_12_67
*197 FILLER_0_12_79
*198 FILLER_0_12_83
*199 FILLER_0_12_85
*200 FILLER_0_12_93
*201 FILLER_0_13_28
*202 FILLER_0_13_3
*203 FILLER_0_13_34
*204 FILLER_0_13_38
*205 FILLER_0_13_54
*206 FILLER_0_13_57
*207 FILLER_0_13_63
*208 FILLER_0_13_7
*209 FILLER_0_13_93
*210 FILLER_0_14_14
*211 FILLER_0_14_41
*212 FILLER_0_14_6
*213 FILLER_0_14_80
*214 FILLER_0_15_15
*215 FILLER_0_15_23
*216 FILLER_0_15_27
*217 FILLER_0_15_29
*218 FILLER_0_15_3
*219 FILLER_0_15_37
*220 FILLER_0_15_44
*221 FILLER_0_15_50
*222 FILLER_0_15_57
*223 FILLER_0_15_69
*224 FILLER_0_15_77
*225 FILLER_0_15_83
*226 FILLER_0_1_25
*227 FILLER_0_1_3
*228 FILLER_0_1_39
*229 FILLER_0_1_46
*230 FILLER_0_1_54
*231 FILLER_0_1_70
*232 FILLER_0_1_85
*233 FILLER_0_1_93
*234 FILLER_0_2_21
*235 FILLER_0_2_25
*236 FILLER_0_2_29
*237 FILLER_0_2_36
*238 FILLER_0_2_48
*239 FILLER_0_2_62
*240 FILLER_0_2_71
*241 FILLER_0_2_83
*242 FILLER_0_2_85
*243 FILLER_0_2_9
*244 FILLER_0_2_93
*245 FILLER_0_3_11
*246 FILLER_0_3_19
*247 FILLER_0_3_3
*248 FILLER_0_3_57
*249 FILLER_0_3_64
*250 FILLER_0_3_79
*251 FILLER_0_3_91
*252 FILLER_0_4_15
*253 FILLER_0_4_27
*254 FILLER_0_4_29
*255 FILLER_0_4_3
*256 FILLER_0_4_37
*257 FILLER_0_4_42
*258 FILLER_0_4_50
*259 FILLER_0_4_58
*260 FILLER_0_4_64
*261 FILLER_0_4_68
*262 FILLER_0_4_80
*263 FILLER_0_4_85
*264 FILLER_0_5_22
*265 FILLER_0_5_34
*266 FILLER_0_5_42
*267 FILLER_0_5_50
*268 FILLER_0_5_57
*269 FILLER_0_5_6
*270 FILLER_0_5_69
*271 FILLER_0_5_81
*272 FILLER_0_5_89
*273 FILLER_0_5_93
*274 FILLER_0_6_13
*275 FILLER_0_6_3
*276 FILLER_0_6_35
*277 FILLER_0_6_46
*278 FILLER_0_6_55
*279 FILLER_0_6_71
*280 FILLER_0_6_92
*281 FILLER_0_7_11
*282 FILLER_0_7_21
*283 FILLER_0_7_3
*284 FILLER_0_7_74
*285 FILLER_0_7_80
*286 FILLER_0_7_86
*287 FILLER_0_8_11
*288 FILLER_0_8_27
*289 FILLER_0_8_29
*290 FILLER_0_8_37
*291 FILLER_0_8_44
*292 FILLER_0_8_52
*293 FILLER_0_8_64
*294 FILLER_0_8_7
*295 FILLER_0_8_76
*296 FILLER_0_8_80
*297 FILLER_0_8_85
*298 FILLER_0_8_93
*299 FILLER_0_9_19
*300 FILLER_0_9_23
*301 FILLER_0_9_3
*302 FILLER_0_9_30
*303 FILLER_0_9_42
*304 FILLER_0_9_54
*305 FILLER_0_9_57
*306 FILLER_0_9_72
*307 FILLER_0_9_84
*308 PHY_0
*309 PHY_1
*310 PHY_10
*311 PHY_11
*312 PHY_12
*313 PHY_13
*314 PHY_14
*315 PHY_15
*316 PHY_16
*317 PHY_17
*318 PHY_18
*319 PHY_19
*320 PHY_2
*321 PHY_20
*322 PHY_21
*323 PHY_22
*324 PHY_23
*325 PHY_24
*326 PHY_25
*327 PHY_26
*328 PHY_27
*329 PHY_28
*330 PHY_29
*331 PHY_3
*332 PHY_30
*333 PHY_31
*334 PHY_4
*335 PHY_5
*336 PHY_6
*337 PHY_7
*338 PHY_8
*339 PHY_9
*340 TAP_32
*341 TAP_33
*342 TAP_34
*343 TAP_35
*344 TAP_36
*345 TAP_37
*346 TAP_38
*347 TAP_39
*348 TAP_40
*349 TAP_41
*350 TAP_42
*351 TAP_43
*352 TAP_44
*353 TAP_45
*354 TAP_46
*355 TAP_47
*356 TAP_48
*357 TAP_49
*358 TAP_50
*359 TAP_51
*360 TAP_52
*361 TAP_53
*362 TAP_54
*363 TAP_55
*364 TAP_56
*365 TAP_57
*366 TAP_58
*367 _106_
*368 _107_
*369 _108_
*370 _109_
*371 _110_
*372 _111_
*373 _112_
*374 _113_
*375 _114_
*376 _115_
*377 _116_
*378 _117_
*379 _118_
*380 _119_
*381 _120_
*382 _121_
*383 _122_
*384 _123_
*385 _124_
*386 _125_
*387 _126_
*388 _127_
*389 _128_
*390 _129_
*391 _130_
*392 _131_
*393 _132_
*394 _133_
*395 _134_
*396 _135_
*397 _136_
*398 _137_
*399 _138_
*400 _139_
*401 _140_
*402 _141_
*403 _142_
*404 _143_
*405 _144_
*406 _145_
*407 _146_
*408 _147_
*409 _148_
*410 _149_
*411 _150_
*412 _151_
*413 _152_
*414 _153_
*415 _154_
*416 _155_
*417 _156_
*418 _157_
*419 _158_
*420 _159_
*421 _160_
*422 _161_
*423 _162_
*424 _163_
*425 _164_
*426 _165_
*427 _166_
*428 _167_
*429 _168_
*430 _169_
*431 _170_
*432 _171_
*433 _172_
*434 _173_
*435 _174_
*436 _175_
*437 _176_
*438 _177_
*439 _178_
*440 _179_
*441 _180_
*442 _181_
*443 _182_
*444 _183_
*445 _184_
*446 _185_
*447 _186_
*448 _187_
*449 _188_
*450 _189_
*451 _190_
*452 _191_
*453 _192_
*454 _193_
*455 _194_
*456 _195_
*457 _196_
*458 _197_
*459 _198_
*460 _199_
*461 _200_
*462 _201_
*463 _202_
*464 _203_
*465 _204_
*466 _205_
*467 _206_
*468 _207_
*469 _208_
*470 _209_
*471 _210_
*472 _211_
*473 _212_
*474 _213_
*475 _214_
*476 _215_
*477 _216_
*478 _217_
*479 _218_
*480 _219_
*481 _220_
*482 input1
*483 input10
*484 input11
*485 input12
*486 input13
*487 input14
*488 input15
*489 input16
*490 input17
*491 input18
*492 input19
*493 input2
*494 input3
*495 input4
*496 input5
*497 input6
*498 input7
*499 input8
*500 input9
*501 output20
*502 output21
*503 output22
*504 output23
*505 output24
*506 output25
*507 output26
*508 output27
*509 output28

*PORTS
ALU_Out[0] O
ALU_Out[1] O
ALU_Out[2] O
ALU_Out[3] O
ALU_Out[4] O
ALU_Out[5] O
ALU_Out[6] O
ALU_Out[7] O
A[0] I
A[1] I
A[2] I
A[3] I
A[4] I
A[5] I
A[6] I
A[7] I
B[0] I
B[1] I
B[2] I
B[3] I
B[4] I
B[5] I
B[6] I
B[7] I
CarryOut O
opcode[0] I
opcode[1] I
opcode[2] I

*D_NET *1 0.00146504
*CONN
*P ALU_Out[0] O
*I *501:X O *D sky130_fd_sc_hd__clkbuf_4
*CAP
1 ALU_Out[0] 0.000487923
2 *501:X 0.000487923
3 ALU_Out[0] *499:A 0.000183726
4 ALU_Out[0] *500:A 0.000248325
5 ALU_Out[0] *501:A 5.71472e-05
*RES
1 *501:X ALU_Out[0] 26.4417 
*END

*D_NET *2 0.00184523
*CONN
*P ALU_Out[1] O
*I *502:X O *D sky130_fd_sc_hd__clkbuf_4
*CAP
1 ALU_Out[1] 0.000922613
2 *502:X 0.000922613
*RES
1 *502:X ALU_Out[1] 30.6214 
*END

*D_NET *3 0.000763831
*CONN
*P ALU_Out[2] O
*I *503:X O *D sky130_fd_sc_hd__clkbuf_4
*CAP
1 ALU_Out[2] 0.000335108
2 *503:X 0.000335108
3 ALU_Out[2] *491:A 0
4 ALU_Out[2] *497:A 9.36141e-05
*RES
1 *503:X ALU_Out[2] 21.6732 
*END

*D_NET *4 0.000497966
*CONN
*P ALU_Out[3] O
*I *504:X O *D sky130_fd_sc_hd__clkbuf_4
*CAP
1 ALU_Out[3] 0.000248983
2 *504:X 0.000248983
*RES
1 *504:X ALU_Out[3] 19.9411 
*END

*D_NET *5 0.00106129
*CONN
*P ALU_Out[4] O
*I *505:X O *D sky130_fd_sc_hd__clkbuf_4
*CAP
1 ALU_Out[4] 0.000480651
2 *505:X 0.000480651
3 ALU_Out[4] *491:A 0
4 ALU_Out[4] *141:22 9.99853e-05
*RES
1 *505:X ALU_Out[4] 22.8536 
*END

*D_NET *6 0.00115858
*CONN
*P ALU_Out[5] O
*I *506:X O *D sky130_fd_sc_hd__clkbuf_4
*CAP
1 ALU_Out[5] 0.000507604
2 *506:X 0.000507604
3 ALU_Out[5] *141:22 0.000143375
*RES
1 *506:X ALU_Out[5] 23.2643 
*END

*D_NET *7 0.000706625
*CONN
*P ALU_Out[6] O
*I *507:X O *D sky130_fd_sc_hd__clkbuf_4
*CAP
1 ALU_Out[6] 0.000353312
2 *507:X 0.000353312
*RES
1 *507:X ALU_Out[6] 20.4781 
*END

*D_NET *8 0.00115075
*CONN
*P ALU_Out[7] O
*I *508:X O *D sky130_fd_sc_hd__clkbuf_4
*CAP
1 ALU_Out[7] 0.000559942
2 *508:X 0.000559942
3 ALU_Out[7] *487:A 0
4 ALU_Out[7] *508:A 3.08664e-05
*RES
1 *508:X ALU_Out[7] 23.925 
*END

*D_NET *9 0.00139877
*CONN
*P A[0] I
*I *482:A I *D sky130_fd_sc_hd__buf_1
*CAP
1 A[0] 0.000497802
2 *482:A 0.000497802
3 *482:A *484:A 6.85998e-05
4 *482:A *495:A 5.38444e-06
5 *482:A *498:A 3.41517e-06
6 *482:A *137:10 3.00962e-05
7 *482:A *139:22 5.52302e-05
8 *482:A *162:10 0.000240445
*RES
1 A[0] *482:A 24.8357 
*END

*D_NET *10 0.00056482
*CONN
*P A[1] I
*I *493:A I *D sky130_fd_sc_hd__clkbuf_2
*CAP
1 A[1] 0.000270971
2 *493:A 0.000270971
3 *493:A *470:C_N 2.28776e-05
4 *493:A *492:A 0
*RES
1 A[1] *493:A 19.906 
*END

*D_NET *11 0.00112389
*CONN
*P A[2] I
*I *494:A I *D sky130_fd_sc_hd__clkbuf_2
*CAP
1 A[2] 0.000490128
2 *494:A 0.000490128
3 *494:A *141:16 0.000143633
*RES
1 A[2] *494:A 23.5679 
*END

*D_NET *12 0.00160875
*CONN
*P A[3] I
*I *495:A I *D sky130_fd_sc_hd__buf_1
*CAP
1 A[3] 0.000752423
2 *495:A 0.000752423
3 *495:A *484:A 1.69142e-05
4 *495:A *498:A 8.16102e-05
5 *482:A *495:A 5.38444e-06
*RES
1 A[3] *495:A 27.6426 
*END

*D_NET *13 0.000603494
*CONN
*P A[4] I
*I *496:A I *D sky130_fd_sc_hd__buf_1
*CAP
1 A[4] 0.000301747
2 *496:A 0.000301747
3 *496:A *490:A 0
4 *496:A *503:A 0
5 *496:A *145:16 0
*RES
1 A[4] *496:A 21.1554 
*END

*D_NET *14 0.00160418
*CONN
*P A[5] I
*I *497:A I *D sky130_fd_sc_hd__buf_1
*CAP
1 A[5] 0.000755281
2 *497:A 0.000755281
3 ALU_Out[2] *497:A 9.36141e-05
*RES
1 A[5] *497:A 28.9071 
*END

*D_NET *15 0.0016186
*CONN
*P A[6] I
*I *498:A I *D sky130_fd_sc_hd__buf_1
*CAP
1 A[6] 0.000547373
2 *498:A 0.000547373
3 *498:A *484:A 0.00043883
4 *482:A *498:A 3.41517e-06
5 *495:A *498:A 8.16102e-05
*RES
1 A[6] *498:A 26.5143 
*END

*D_NET *16 0.00158352
*CONN
*P A[7] I
*I *499:A I *D sky130_fd_sc_hd__buf_2
*CAP
1 A[7] 0.000672281
2 *499:A 0.000672281
3 *499:A *500:A 5.52302e-05
4 ALU_Out[0] *499:A 0.000183726
*RES
1 A[7] *499:A 27.5857 
*END

*D_NET *17 0.0015591
*CONN
*P B[0] I
*I *500:A I *D sky130_fd_sc_hd__buf_1
*CAP
1 B[0] 0.000581185
2 *500:A 0.000581185
3 *500:A *501:A 5.52302e-05
4 *500:A *163:14 3.79467e-05
5 ALU_Out[0] *500:A 0.000248325
6 *499:A *500:A 5.52302e-05
*RES
1 B[0] *500:A 26.675 
*END

*D_NET *18 0.00133321
*CONN
*P B[1] I
*I *483:A I *D sky130_fd_sc_hd__dlymetal6s2s_1
*CAP
1 B[1] 0.000449702
2 *483:A 0.000449702
3 *483:A *415:A2 3.4846e-06
4 *483:A *137:16 0.000146533
5 *483:A *164:17 0.000228558
6 *483:A *164:36 5.52302e-05
*RES
1 B[1] *483:A 23.8893 
*END

*D_NET *19 0.00154545
*CONN
*P B[2] I
*I *484:A I *D sky130_fd_sc_hd__dlymetal6s2s_1
*CAP
1 B[2] 0.000454257
2 *484:A 0.000454257
3 *484:A *137:10 9.99853e-05
4 *484:A *162:10 1.26099e-05
5 *482:A *484:A 6.85998e-05
6 *495:A *484:A 1.69142e-05
7 *498:A *484:A 0.00043883
*RES
1 B[2] *484:A 26.3512 
*END

*D_NET *20 0.00097647
*CONN
*P B[3] I
*I *485:A I *D sky130_fd_sc_hd__buf_1
*CAP
1 B[3] 0.000488235
2 *485:A 0.000488235
3 *485:A *139:22 0
4 *485:A *163:22 0
*RES
1 B[3] *485:A 24.2464 
*END

*D_NET *21 0.00131227
*CONN
*P B[4] I
*I *486:A I *D sky130_fd_sc_hd__buf_1
*CAP
1 B[4] 0.000546695
2 *486:A 0.000546695
3 *486:A *502:A 2.24237e-05
4 *486:A *508:A 7.89362e-05
5 *486:A *150:22 0.00011752
*RES
1 B[4] *486:A 21.3569 
*END

*D_NET *22 0.00125813
*CONN
*P B[5] I
*I *487:A I *D sky130_fd_sc_hd__buf_1
*CAP
1 B[5] 0.000622848
2 *487:A 0.000622848
3 *487:A *508:A 1.24368e-05
4 ALU_Out[7] *487:A 0
*RES
1 B[5] *487:A 23.7855 
*END

*D_NET *23 0.000661611
*CONN
*P B[6] I
*I *488:A I *D sky130_fd_sc_hd__buf_1
*CAP
1 B[6] 0.000330806
2 *488:A 0.000330806
3 *488:A *160:12 0
*RES
1 B[6] *488:A 21.7625 
*END

*D_NET *24 0.0010084
*CONN
*P B[7] I
*I *489:A I *D sky130_fd_sc_hd__buf_2
*CAP
1 B[7] 0.000470084
2 *489:A 0.000470084
3 *489:A *373:A 1.32293e-05
4 *489:A *141:22 5.50052e-05
*RES
1 B[7] *489:A 23.05 
*END

*D_NET *25 0.00128198
*CONN
*P CarryOut O
*I *509:X O *D sky130_fd_sc_hd__clkbuf_4
*CAP
1 CarryOut 0.000499344
2 *509:X 0.000499344
3 CarryOut *509:A 0.000184745
4 CarryOut *139:22 7.56935e-05
5 CarryOut *164:36 2.28499e-05
*RES
1 *509:X CarryOut 22.8714 
*END

*D_NET *28 0.00057415
*CONN
*P opcode[0] I
*I *490:A I *D sky130_fd_sc_hd__clkbuf_2
*CAP
1 opcode[0] 0.00028523
2 *490:A 0.00028523
3 *490:A *145:8 3.69047e-06
4 *490:A *145:10 0
5 *496:A *490:A 0
*RES
1 opcode[0] *490:A 20.6554 
*END

*D_NET *29 0.00170563
*CONN
*P opcode[1] I
*I *491:A I *D sky130_fd_sc_hd__clkbuf_2
*CAP
1 opcode[1] 0.000850127
2 *491:A 0.000850127
3 *491:A *141:22 5.37741e-06
4 ALU_Out[2] *491:A 0
5 ALU_Out[4] *491:A 0
*RES
1 opcode[1] *491:A 25.347 
*END

*D_NET *30 0.000454305
*CONN
*P opcode[2] I
*I *492:A I *D sky130_fd_sc_hd__buf_2
*CAP
1 opcode[2] 0.000227152
2 *492:A 0.000227152
3 *493:A *492:A 0
*RES
1 opcode[2] *492:A 19.8339 
*END

*D_NET *31 0.0127019
*CONN
*I *480:B1 I *D sky130_fd_sc_hd__a21oi_1
*I *473:A1 I *D sky130_fd_sc_hd__o211ai_1
*I *449:A1 I *D sky130_fd_sc_hd__o211ai_1
*I *438:X O *D sky130_fd_sc_hd__or3_2
*CAP
1 *480:B1 0.000443179
2 *473:A1 0.000621604
3 *449:A1 0.00103249
4 *438:X 0.000302242
5 *31:27 0.00379284
6 *31:8 0.00406278
7 *449:A1 *440:A 5.66971e-05
8 *449:A1 *440:B 2.85321e-05
9 *449:A1 *444:B1 8.30385e-05
10 *449:A1 *445:D_N 0.000107909
11 *449:A1 *446:A 6.66813e-05
12 *449:A1 *447:A2 0.000149477
13 *449:A1 *449:B1 1.38737e-05
14 *449:A1 *33:21 1.62025e-05
15 *449:A1 *101:8 0.000172173
16 *449:A1 *107:8 9.15842e-06
17 *473:A1 *473:B1 0.000133468
18 *473:A1 *473:C1 5.08231e-05
19 *473:A1 *150:22 0.000220802
20 *480:B1 *470:C_N 7.80194e-05
21 *480:B1 *148:14 0.000185946
22 *480:B1 *150:22 0.000410132
23 *31:8 *120:32 0.000438205
24 *31:27 *426:B1 0
25 *31:27 *107:8 0.000110396
26 *31:27 *143:22 0
27 *31:27 *158:34 0.000115211
*RES
1 *438:X *31:8 18.0321 
2 *31:8 *449:A1 32.1393 
3 *31:8 *31:27 9.23604 
4 *31:27 *473:A1 22.5424 
5 *31:27 *480:B1 26.8383 
*END

*D_NET *32 0.00369745
*CONN
*I *441:A I *D sky130_fd_sc_hd__xnor2_1
*I *439:Y O *D sky130_fd_sc_hd__nand2_1
*CAP
1 *441:A 0.0012293
2 *439:Y 0.0012293
3 *441:A *404:B1 0.000146398
4 *441:A *439:A 3.69047e-06
5 *441:A *441:B 0.00035207
6 *441:A *444:B1 1.35465e-05
7 *441:A *445:C 4.71921e-05
8 *441:A *445:D_N 0.000451964
9 *441:A *447:A1 5.36422e-05
10 *441:A *447:A2 9.31016e-05
11 *441:A *122:44 4.27842e-06
12 *441:A *147:28 7.29633e-05
*RES
1 *439:Y *441:A 49.5643 
*END

*D_NET *33 0.00244594
*CONN
*I *444:B1 I *D sky130_fd_sc_hd__o211a_1
*I *442:A I *D sky130_fd_sc_hd__nor2_1
*I *441:B I *D sky130_fd_sc_hd__xnor2_1
*I *440:Y O *D sky130_fd_sc_hd__nor2_1
*CAP
1 *444:B1 0.000178533
2 *442:A 1.35868e-05
3 *441:B 0.000228974
4 *440:Y 0
5 *33:21 0.000280234
6 *33:4 0.000317089
7 *441:B *445:A 0.000126272
8 *441:B *449:B1 0.000138855
9 *441:B *105:23 2.39441e-05
10 *442:A *442:B 1.87331e-05
11 *444:B1 *444:A1 5.92441e-05
12 *444:B1 *444:A2 4.10796e-05
13 *444:B1 *445:A 2.85234e-05
14 *444:B1 *445:B 0.000182683
15 *444:B1 *445:D_N 2.85321e-05
16 *444:B1 *101:8 2.38501e-05
17 *33:21 *440:A 2.85234e-05
18 *33:21 *445:A 0.000142449
19 *33:21 *101:8 0.000119977
20 *441:A *441:B 0.00035207
21 *441:A *444:B1 1.35465e-05
22 *449:A1 *444:B1 8.30385e-05
23 *449:A1 *33:21 1.62025e-05
*RES
1 *440:Y *33:4 9.3 
2 *33:4 *441:B 24.0857 
3 *33:4 *33:21 3 
4 *33:21 *442:A 9.72857 
5 *33:21 *444:B1 23.2821 
*END

*D_NET *34 0.000365404
*CONN
*I *449:A2 I *D sky130_fd_sc_hd__o211ai_1
*I *441:Y O *D sky130_fd_sc_hd__xnor2_1
*CAP
1 *449:A2 0.00011618
2 *441:Y 0.00011618
3 *449:A2 *449:B1 5.45307e-05
4 *449:A2 *449:C1 7.85137e-05
*RES
1 *441:Y *449:A2 29.5821 
*END

*D_NET *35 0.00108623
*CONN
*I *445:A I *D sky130_fd_sc_hd__or4b_1
*I *442:Y O *D sky130_fd_sc_hd__nor2_1
*CAP
1 *445:A 0.000308454
2 *442:Y 0.000308454
3 *445:A *442:B 7.25873e-06
4 *445:A *101:8 8.10737e-06
5 *445:A *101:21 0.000150917
6 *445:A *105:23 5.79582e-06
7 *441:B *445:A 0.000126272
8 *444:B1 *445:A 2.85234e-05
9 *33:21 *445:A 0.000142449
*RES
1 *442:Y *445:A 32.9571 
*END

*D_NET *36 0.000736851
*CONN
*I *444:A2 I *D sky130_fd_sc_hd__o211a_1
*I *443:Y O *D sky130_fd_sc_hd__inv_2
*CAP
1 *444:A2 0.000214504
2 *443:Y 0.000214504
3 *444:A2 *386:C 1.8461e-05
4 *444:A2 *444:C1 5.49489e-05
5 *444:A2 *445:B 3.54595e-05
6 *444:A2 *81:18 2.59355e-05
7 *444:A2 *91:10 0.000131958
8 *444:B1 *444:A2 4.10796e-05
*RES
1 *443:Y *444:A2 32.0821 
*END

*D_NET *37 0.000291709
*CONN
*I *445:C I *D sky130_fd_sc_hd__or4b_1
*I *444:X O *D sky130_fd_sc_hd__o211a_1
*CAP
1 *445:C 5.92083e-05
2 *444:X 5.92083e-05
3 *445:C *445:B 9.75679e-05
4 *445:C *445:D_N 2.85321e-05
5 *441:A *445:C 4.71921e-05
*RES
1 *444:X *445:C 20.3679 
*END

*D_NET *38 0.000654902
*CONN
*I *449:B1 I *D sky130_fd_sc_hd__o211ai_1
*I *445:X O *D sky130_fd_sc_hd__or4b_1
*CAP
1 *449:B1 0.000157062
2 *445:X 0.000157062
3 *449:B1 *440:B 5.50052e-05
4 *449:B1 *105:23 7.85137e-05
5 *441:B *449:B1 0.000138855
6 *449:A1 *449:B1 1.38737e-05
7 *449:A2 *449:B1 5.45307e-05
*RES
1 *445:X *449:B1 31.5464 
*END

*D_NET *39 0.00355353
*CONN
*I *471:B1 I *D sky130_fd_sc_hd__o21a_1
*I *447:B1 I *D sky130_fd_sc_hd__o21a_1
*I *446:Y O *D sky130_fd_sc_hd__nand2_1
*CAP
1 *471:B1 0.000736935
2 *447:B1 3.46071e-05
3 *446:Y 5.36161e-05
4 *39:6 0.000825158
5 *447:B1 *447:A2 5.46383e-06
6 *471:B1 *379:A 5.33005e-05
7 *471:B1 *379:B 6.03333e-05
8 *471:B1 *381:A 0.00020727
9 *471:B1 *423:B1 8.43535e-06
10 *471:B1 *434:A 0.000312848
11 *471:B1 *435:B1 9.58181e-05
12 *471:B1 *437:B1 7.89362e-05
13 *471:B1 *447:A1 9.58181e-05
14 *471:B1 *447:A2 9.86486e-06
15 *471:B1 *471:A1 3.41517e-06
16 *471:B1 *472:B1 9.99853e-05
17 *471:B1 *84:6 0.00026023
18 *471:B1 *105:38 5.33005e-05
19 *471:B1 *106:14 5.66971e-05
20 *471:B1 *120:81 6.56014e-05
21 *471:B1 *122:54 4.37296e-05
22 *471:B1 *163:22 2.02727e-05
23 *39:6 *447:A2 3.69047e-06
24 *39:6 *448:B1 0.000141935
25 *39:6 *105:38 0.000226274
*RES
1 *446:Y *39:6 11.4786 
2 *39:6 *447:B1 10.0321 
3 *39:6 *471:B1 33.7821 
*END

*D_NET *40 0.000429538
*CONN
*I *448:B1 I *D sky130_fd_sc_hd__o2bb2a_1
*I *447:X O *D sky130_fd_sc_hd__o21a_1
*CAP
1 *448:B1 8.11913e-05
2 *447:X 8.11913e-05
3 *448:B1 *446:B 5.49995e-05
4 *448:B1 *448:B2 5.49995e-05
5 *448:B1 *105:38 1.52217e-05
6 *39:6 *448:B1 0.000141935
*RES
1 *447:X *448:B1 20.7786 
*END

*D_NET *41 0.00177583
*CONN
*I *449:C1 I *D sky130_fd_sc_hd__o211ai_1
*I *448:X O *D sky130_fd_sc_hd__o2bb2a_1
*CAP
1 *449:C1 0.000457948
2 *448:X 0.000457948
3 *449:C1 *415:B1_N 0.000686638
4 *449:C1 *448:A2_N 1.83136e-05
5 *449:C1 *115:10 1.73789e-05
6 *449:C1 *120:20 5.90911e-05
7 *449:A2 *449:C1 7.85137e-05
*RES
1 *448:X *449:C1 38.2786 
*END

*D_NET *42 0.0011434
*CONN
*I *457:A1 I *D sky130_fd_sc_hd__a311o_1
*I *450:Y O *D sky130_fd_sc_hd__nand2_1
*CAP
1 *457:A1 0.000517128
2 *450:Y 0.000517128
3 *457:A1 *452:A0 7.89362e-05
4 *457:A1 *457:A3 0
5 *457:A1 *46:21 2.06112e-05
6 *457:A1 *99:65 4.6025e-06
7 *457:A1 *99:90 4.99283e-06
8 *457:A1 *143:22 0
9 *457:A1 *146:18 0
*RES
1 *450:Y *457:A1 36.8114 
*END

*D_NET *43 0.000480526
*CONN
*I *457:A3 I *D sky130_fd_sc_hd__a311o_1
*I *451:X O *D sky130_fd_sc_hd__or2_1
*CAP
1 *457:A3 0.000137293
2 *451:X 0.000137293
3 *457:A3 *452:A1 7.54868e-05
4 *457:A3 *46:8 9.15842e-06
5 *457:A3 *46:21 0.000110523
6 *457:A3 *80:53 1.07719e-05
7 *457:A1 *457:A3 0
*RES
1 *451:X *457:A3 29.7786 
*END

*D_NET *44 0.000164677
*CONN
*I *453:A2 I *D sky130_fd_sc_hd__o21a_1
*I *452:X O *D sky130_fd_sc_hd__mux2_1
*CAP
1 *453:A2 5.26999e-05
2 *452:X 5.26999e-05
3 *453:A2 *121:14 2.84109e-05
4 *453:A2 *121:37 3.08664e-05
*RES
1 *452:X *453:A2 19.5464 
*END

*D_NET *45 0.00181288
*CONN
*I *457:B1 I *D sky130_fd_sc_hd__a311o_1
*I *453:X O *D sky130_fd_sc_hd__o21a_1
*CAP
1 *457:B1 0.000526663
2 *453:X 0.000526663
3 *457:B1 *452:A1 0.000225471
4 *457:B1 *452:S 2.84109e-05
5 *457:B1 *457:A2 8.95274e-05
6 *457:B1 *121:14 9.58181e-05
7 *457:B1 *121:37 0.000320323
*RES
1 *453:X *457:B1 28.6357 
*END

*D_NET *46 0.00213556
*CONN
*I *459:A2 I *D sky130_fd_sc_hd__a21o_1
*I *458:B I *D sky130_fd_sc_hd__nand3_1
*I *456:A I *D sky130_fd_sc_hd__and3_1
*I *454:X O *D sky130_fd_sc_hd__or3_1
*CAP
1 *459:A2 0.000139908
2 *458:B 4.82215e-05
3 *456:A 5.4038e-05
4 *454:X 0.000118439
5 *46:21 0.000368787
6 *46:8 0.000353135
7 *456:A *91:24 1.84865e-05
8 *458:B *390:B1 0.000140933
9 *458:B *458:A 1.02301e-05
10 *458:B *458:C 5.71472e-05
11 *458:B *78:38 4.29414e-05
12 *458:B *99:90 1.26727e-05
13 *459:A2 *458:C 8.73218e-05
14 *459:A2 *459:A1 2.85234e-05
15 *459:A2 *505:A 0.000105225
16 *459:A2 *108:12 3.74417e-06
17 *459:A2 *161:6 5.49995e-05
18 *46:8 *452:A1 4.50121e-05
19 *46:8 *456:C 3.0089e-05
20 *46:8 *80:53 9.96487e-05
21 *46:8 *113:60 3.75868e-05
22 *46:21 *505:A 5.64029e-05
23 *46:21 *99:65 2.22861e-05
24 *46:21 *99:90 5.94914e-05
25 *457:A1 *46:21 2.06112e-05
26 *457:A3 *46:8 9.15842e-06
27 *457:A3 *46:21 0.000110523
*RES
1 *454:X *46:8 16.3536 
2 *46:8 *456:A 14.7643 
3 *46:8 *46:21 4.07143 
4 *46:21 *458:B 15.5857 
5 *46:21 *459:A2 17.6214 
*END

*D_NET *47 0.000893472
*CONN
*I *456:C I *D sky130_fd_sc_hd__and3_1
*I *455:Y O *D sky130_fd_sc_hd__o21ai_1
*CAP
1 *456:C 0.000199999
2 *455:Y 0.000199999
3 *456:C *455:B1 2.0372e-05
4 *456:C *91:24 5.7993e-06
5 *456:C *99:65 0.00028217
6 *456:C *113:60 0.000155045
7 *46:8 *456:C 3.0089e-05
*RES
1 *455:Y *456:C 32.475 
*END

*D_NET *48 0.000397838
*CONN
*I *457:C1 I *D sky130_fd_sc_hd__a311o_1
*I *456:X O *D sky130_fd_sc_hd__and3_1
*CAP
1 *457:C1 7.96756e-05
2 *456:X 7.96756e-05
3 *457:C1 *390:B1 9.25014e-06
4 *457:C1 *407:B1 0
5 *457:C1 *80:14 8.23946e-05
6 *457:C1 *80:18 7.74068e-05
7 *457:C1 *99:65 4.34998e-05
8 *457:C1 *121:37 2.59355e-05
*RES
1 *456:X *457:C1 29.7786 
*END

*D_NET *49 0.000720268
*CONN
*I *465:A2 I *D sky130_fd_sc_hd__a31o_1
*I *458:Y O *D sky130_fd_sc_hd__nand3_1
*CAP
1 *465:A2 0.000224173
2 *458:Y 0.000224173
3 *465:A2 *406:A 5.66971e-05
4 *465:A2 *406:B 0.000100165
5 *465:A2 *465:B1 6.13903e-05
6 *465:A2 *78:38 1.32293e-05
7 *465:A2 *99:90 4.04415e-05
*RES
1 *458:Y *465:A2 31.4214 
*END

*D_NET *50 0.00034297
*CONN
*I *465:A3 I *D sky130_fd_sc_hd__a31o_1
*I *459:X O *D sky130_fd_sc_hd__a21o_1
*CAP
1 *465:A3 2.66051e-05
2 *459:X 2.66051e-05
3 *465:A3 *108:12 0.0001871
4 *465:A3 *161:6 0.000102659
*RES
1 *459:X *465:A3 20.3679 
*END

*D_NET *51 0.00154456
*CONN
*I *464:A1 I *D sky130_fd_sc_hd__a31o_1
*I *460:X O *D sky130_fd_sc_hd__or2_1
*CAP
1 *464:A1 0.000352445
2 *460:X 0.000352445
3 *464:A1 *392:B1 0.000148746
4 *464:A1 *460:A 2.07382e-05
5 *464:A1 *460:B 2.28598e-05
6 *464:A1 *463:A1_N 0.000182592
7 *464:A1 *464:B1 9.83388e-05
8 *464:A1 *477:A3 5.33433e-05
9 *464:A1 *77:12 0.000148039
10 *464:A1 *99:98 2.80632e-05
11 *464:A1 *121:37 0.000136951
*RES
1 *460:X *464:A1 34.725 
*END

*D_NET *52 0.000511482
*CONN
*I *464:A3 I *D sky130_fd_sc_hd__a31o_1
*I *461:Y O *D sky130_fd_sc_hd__nand2_1
*CAP
1 *464:A3 0.00014288
2 *461:Y 0.00014288
3 *464:A3 *113:71 0.000125736
4 *464:A3 *121:37 9.99853e-05
*RES
1 *461:Y *464:A3 30.1893 
*END

*D_NET *53 0.000941042
*CONN
*I *463:A2_N I *D sky130_fd_sc_hd__a2bb2o_1
*I *462:Y O *D sky130_fd_sc_hd__a21oi_1
*CAP
1 *463:A2_N 0.000255045
2 *462:Y 0.000255045
3 *463:A2_N *392:B1 0.00021945
4 *463:A2_N *462:A2 3.43304e-05
5 *463:A2_N *463:B1 0
6 *463:A2_N *77:12 6.8646e-06
7 *463:A2_N *100:10 0
8 *463:A2_N *121:37 0.000170308
*RES
1 *462:Y *463:A2_N 32.9482 
*END

*D_NET *54 0.000238381
*CONN
*I *464:B1 I *D sky130_fd_sc_hd__a31o_1
*I *463:X O *D sky130_fd_sc_hd__a2bb2o_1
*CAP
1 *464:B1 4.39878e-05
2 *463:X 4.39878e-05
3 *464:B1 *99:98 5.20669e-05
4 *464:A1 *464:B1 9.83388e-05
*RES
1 *463:X *464:B1 19.975 
*END

*D_NET *55 0.000789717
*CONN
*I *465:B1 I *D sky130_fd_sc_hd__a31o_1
*I *464:X O *D sky130_fd_sc_hd__a31o_1
*CAP
1 *465:B1 0.000231293
2 *464:X 0.000231293
3 *465:B1 *406:A 0.000141729
4 *465:B1 *463:A1_N 9.58181e-05
5 *465:B1 *76:32 2.81946e-05
6 *465:A2 *465:B1 6.13903e-05
*RES
1 *464:X *465:B1 31.4214 
*END

*D_NET *56 0.00214466
*CONN
*I *467:A I *D sky130_fd_sc_hd__xnor2_1
*I *466:Y O *D sky130_fd_sc_hd__nand2_1
*CAP
1 *467:A 0.000528284
2 *466:Y 0.000528284
3 *467:A *370:B 2.59355e-05
4 *467:A *394:A1 0.000139954
5 *467:A *466:A 5.50052e-05
6 *467:A *468:B 4.60115e-05
7 *467:A *473:C1 0.000148514
8 *467:A *72:10 0.000190785
9 *467:A *72:16 0.000123231
10 *467:A *73:12 5.33005e-05
11 *467:A *74:10 0.000192659
12 *467:A *74:27 3.07828e-05
13 *467:A *95:20 8.07792e-06
14 *467:A *143:22 4.91813e-05
15 *467:A *143:31 2.4652e-05
*RES
1 *466:Y *467:A 39.0821 
*END

*D_NET *57 0.000446209
*CONN
*I *473:A2 I *D sky130_fd_sc_hd__o211ai_1
*I *467:Y O *D sky130_fd_sc_hd__xnor2_1
*CAP
1 *473:A2 0.000101677
2 *467:Y 0.000101677
3 *473:A2 *470:A 5.49489e-05
4 *473:A2 *473:B1 0.000123352
5 *473:A2 *162:10 6.45537e-05
*RES
1 *467:Y *473:A2 29.7786 
*END

*D_NET *58 0.000832761
*CONN
*I *470:A I *D sky130_fd_sc_hd__or3b_1
*I *468:Y O *D sky130_fd_sc_hd__nor2_1
*CAP
1 *470:A 0.000319528
2 *468:Y 0.000319528
3 *470:A *468:A 0.000100074
4 *470:A *468:B 1.62025e-05
5 *470:A *74:27 2.24804e-05
6 *473:A2 *470:A 5.49489e-05
*RES
1 *468:Y *470:A 24.0821 
*END

*D_NET *59 0.000356555
*CONN
*I *470:B I *D sky130_fd_sc_hd__or3b_1
*I *469:X O *D sky130_fd_sc_hd__and2_1
*CAP
1 *470:B 0.000135639
2 *469:X 0.000135639
3 *470:B *147:28 8.28065e-06
4 *470:B *150:22 7.6997e-05
*RES
1 *469:X *470:B 29.5821 
*END

*D_NET *60 0.000467661
*CONN
*I *473:B1 I *D sky130_fd_sc_hd__o211ai_1
*I *470:X O *D sky130_fd_sc_hd__or3b_1
*CAP
1 *473:B1 7.09431e-05
2 *470:X 7.09431e-05
3 *473:B1 *473:C1 5.65955e-05
4 *473:B1 *150:22 1.23589e-05
5 *473:A1 *473:B1 0.000133468
6 *473:A2 *473:B1 0.000123352
*RES
1 *470:X *473:B1 29.7786 
*END

*D_NET *61 0.000590149
*CONN
*I *472:B1 I *D sky130_fd_sc_hd__o2bb2a_1
*I *471:X O *D sky130_fd_sc_hd__o21a_1
*CAP
1 *472:B1 7.91983e-05
2 *471:X 7.91983e-05
3 *472:B1 *422:B 9.75171e-05
4 *472:B1 *471:A1 1.83136e-05
5 *472:B1 *120:81 2.98838e-05
6 *472:B1 *122:54 0.000186053
7 *471:B1 *472:B1 9.99853e-05
*RES
1 *471:X *472:B1 21.6179 
*END

*D_NET *62 0.00175266
*CONN
*I *473:C1 I *D sky130_fd_sc_hd__o211ai_1
*I *472:X O *D sky130_fd_sc_hd__o2bb2a_1
*CAP
1 *473:C1 0.000573606
2 *472:X 0.000573606
3 *473:C1 *469:B 9.35307e-05
4 *473:C1 *72:16 3.37853e-05
5 *473:C1 *74:27 0.000124749
6 *473:C1 *162:10 9.7455e-05
7 *467:A *473:C1 0.000148514
8 *473:A1 *473:C1 5.08231e-05
9 *473:B1 *473:C1 5.65955e-05
*RES
1 *472:X *473:C1 38.1 
*END

*D_NET *63 0.000624105
*CONN
*I *481:A2 I *D sky130_fd_sc_hd__a211o_1
*I *474:X O *D sky130_fd_sc_hd__xor2_1
*CAP
1 *481:A2 0.000232038
2 *474:X 0.000232038
3 *481:A2 *470:C_N 7.12795e-05
4 *481:A2 *481:A1 2.33483e-05
5 *481:A2 *508:A 3.83493e-06
6 *481:A2 *99:106 6.15674e-05
*RES
1 *474:X *481:A2 21.8143 
*END

*D_NET *64 0.000410684
*CONN
*I *476:B2 I *D sky130_fd_sc_hd__o22a_1
*I *475:Y O *D sky130_fd_sc_hd__a21oi_1
*CAP
1 *476:B2 8.21354e-05
2 *475:Y 8.21354e-05
3 *476:B2 *409:A2 5.38444e-06
4 *476:B2 *475:A1 1.59373e-05
5 *476:B2 *476:B1 3.37376e-05
6 *476:B2 *477:B1 3.08664e-05
7 *476:B2 *144:18 1.00733e-05
8 *476:B2 *163:37 0.000150414
*RES
1 *475:Y *476:B2 21.225 
*END

*D_NET *65 0.00116687
*CONN
*I *477:B1 I *D sky130_fd_sc_hd__a31o_1
*I *476:X O *D sky130_fd_sc_hd__o22a_1
*CAP
1 *477:B1 0.000305027
2 *476:X 0.000305027
3 *477:B1 *477:A3 0.000185124
4 *477:B1 *100:10 0.000124665
5 *477:B1 *100:16 0.000197516
6 *477:B1 *144:16 0
7 *477:B1 *163:37 1.8644e-05
8 *476:B2 *477:B1 3.08664e-05
*RES
1 *476:X *477:B1 34.3857 
*END

*D_NET *66 0.00221967
*CONN
*I *481:B1 I *D sky130_fd_sc_hd__a211o_1
*I *477:X O *D sky130_fd_sc_hd__a31o_1
*CAP
1 *481:B1 0.000721807
2 *477:X 0.000721807
3 *481:B1 *412:A1 9.84729e-05
4 *481:B1 *412:A2 0.00012401
5 *481:B1 *412:B1 0.000152558
6 *481:B1 *474:A 9.84729e-05
7 *481:B1 *481:A1 1.05779e-05
8 *481:B1 *71:10 0
9 *481:B1 *99:106 0.000119439
10 *481:B1 *158:20 0.000172525
*RES
1 *477:X *481:B1 39.1536 
*END

*D_NET *67 0.00104875
*CONN
*I *480:A1 I *D sky130_fd_sc_hd__a21oi_1
*I *478:Y O *D sky130_fd_sc_hd__o21ai_1
*CAP
1 *480:A1 0.000289842
2 *478:Y 0.000289842
3 *480:A1 *394:A1 5.33005e-05
4 *480:A1 *394:A2 8.25843e-06
5 *480:A1 *479:B 5.66971e-05
6 *480:A1 *480:A2 0.000141734
7 *480:A1 *71:14 0.000171492
8 *480:A1 *95:20 3.75868e-05
*RES
1 *478:Y *480:A1 33.3857 
*END

*D_NET *68 0.000849261
*CONN
*I *480:A2 I *D sky130_fd_sc_hd__a21oi_1
*I *479:X O *D sky130_fd_sc_hd__or3_1
*CAP
1 *480:A2 0.000188822
2 *479:X 0.000188822
3 *480:A2 *394:A1 0.000148514
4 *480:A2 *394:B1 0.00018137
5 *480:A1 *480:A2 0.000141734
*RES
1 *479:X *480:A2 31.85 
*END

*D_NET *69 0.000983661
*CONN
*I *481:C1 I *D sky130_fd_sc_hd__a211o_1
*I *480:Y O *D sky130_fd_sc_hd__a21oi_1
*CAP
1 *481:C1 0.000272744
2 *480:Y 0.000272744
3 *481:C1 *71:10 0
4 *481:C1 *150:22 0.000438173
*RES
1 *480:Y *481:C1 33.85 
*END

*D_NET *70 0.00118373
*CONN
*I *412:A1 I *D sky130_fd_sc_hd__a31o_1
*I *367:X O *D sky130_fd_sc_hd__or2b_1
*CAP
1 *412:A1 0.000319278
2 *367:X 0.000319278
3 *412:A1 *368:B 5.25759e-05
4 *412:A1 *411:A1 0.000124749
5 *412:A1 *412:B1 6.05161e-06
6 *412:A1 *99:98 0.0001399
7 *412:A1 *99:106 2.05612e-05
8 *412:A1 *142:16 4.05323e-05
9 *412:A1 *158:20 6.23278e-05
10 *481:B1 *412:A1 9.84729e-05
*RES
1 *367:X *412:A1 33.6 
*END

*D_NET *71 0.00188216
*CONN
*I *474:A I *D sky130_fd_sc_hd__xor2_1