*SPEF "ieee 1481-1999"
*DESIGN "alu_8bit"
*DATE "11:11:11 Fri 11 11, 1111"
*VENDOR "OpenRCX"
*PROGRAM "Parallel Extraction"
*VERSION "1.0"
*DESIGN_FLOW "NAME_SCOPE LOCAL" "PIN_CAP NONE"
*DIVIDER /
*DELIMITER :
*BUS_DELIMITER []
*T_UNIT 1 NS
*C_UNIT 1 PF
*R_UNIT 1 OHM
*L_UNIT 1 HENRY

*NAME_MAP
*1 ALU_Out[0]
*2 ALU_Out[1]
*3 ALU_Out[2]
*4 ALU_Out[3]
*5 ALU_Out[4]
*6 ALU_Out[5]
*7 ALU_Out[6]
*8 ALU_Out[7]
*9 A[0]
*10 A[1]
*11 A[2]
*12 A[3]
*13 A[4]
*14 A[5]
*15 A[6]
*16 A[7]
*17 B[0]
*18 B[1]
*19 B[2]
*20 B[3]
*21 B[4]
*22 B[5]
*23 B[6]
*24 B[7]
*25 CarryOut
*28 opcode[0]
*29 opcode[1]
*30 opcode[2]
*31 _000_
*32 _001_
*33 _002_
*34 _003_
*35 _004_
*36 _005_
*37 _006_
*38 _007_
*39 _008_
*40 _009_
*41 _010_
*42 _011_
*43 _012_
*44 _013_
*45 _014_
*46 _015_
*47 _016_
*48 _017_
*49 _018_
*50 _019_
*51 _020_
*52 _021_
*53 _022_
*54 _023_
*55 _024_
*56 _025_
*57 _026_
*58 _027_
*59 _028_
*60 _029_
*61 _030_
*62 _031_
*63 _032_
*64 _033_
*65 _034_
*66 _035_
*67 _036_
*68 _037_
*69 _038_
*70 _039_
*71 _040_
*72 _041_
*73 _042_
*74 _043_
*75 _044_
*76 _045_
*77 _046_
*78 _047_
*79 _048_
*80 _049_
*81 _050_
*82 _051_
*83 _052_
*84 _053_
*85 _054_
*86 _055_
*87 _056_
*88 _057_
*89 _058_
*90 _059_
*91 _060_
*92 _061_
*93 _062_
*94 _063_
*95 _064_
*96 _065_
*97 _066_
*98 _067_
*99 _068_
*100 _069_
*101 _070_
*102 _071_
*103 _072_
*104 _073_
*105 _074_
*106 _075_
*107 _076_
*108 _077_
*109 _078_
*110 _079_
*111 _080_
*112 _081_
*113 _082_
*114 _083_
*115 _084_
*116 _085_
*117 _086_
*118 _087_
*119 _088_
*120 _089_
*121 _090_
*122 _091_
*123 _092_
*124 _093_
*125 _094_
*126 _095_
*127 _096_
*128 _097_
*129 _098_
*130 _099_
*131 _100_
*132 _101_
*133 _102_
*134 _103_
*135 _104_
*136 _105_
*137 net1
*138 net10
*139 net11
*140 net12
*141 net13
*142 net14
*143 net15
*144 net16
*145 net17
*146 net18
*147 net19
*148 net2
*149 net20
*150 net21
*151 net22
*152 net23
*153 net24
*154 net25
*155 net26
*156 net27
*157 net28
*158 net3
*159 net4
*160 net5
*161 net6
*162 net7
*163 net8
*164 net9
*165 FILLER_0_0_16
*166 FILLER_0_0_21
*167 FILLER_0_0_27
*168 FILLER_0_0_39
*169 FILLER_0_0_48
*170 FILLER_0_0_63
*171 FILLER_0_0_69
*172 FILLER_0_0_73
*173 FILLER_0_10_15
*174 FILLER_0_10_3
*175 FILLER_0_10_38
*176 FILLER_0_10_50
*177 FILLER_0_10_54
*178 FILLER_0_10_73
*179 FILLER_0_10_91
*180 FILLER_0_11_22
*181 FILLER_0_11_29
*182 FILLER_0_11_41
*183 FILLER_0_11_49
*184 FILLER_0_11_54
*185 FILLER_0_11_57
*186 FILLER_0_11_6
*187 FILLER_0_11_69
*188 FILLER_0_11_77
*189 FILLER_0_11_83
*190 FILLER_0_11_88
*191 FILLER_0_12_29
*192 FILLER_0_12_3
*193 FILLER_0_12_33
*194 FILLER_0_12_38
*195 FILLER_0_12_56
*196 FILLER_0_12_67
*197 FILLER_0_12_79
*198 FILLER_0_12_83
*199 FILLER_0_12_85
*200 FILLER_0_12_93
*201 FILLER_0_13_28
*202 FILLER_0_13_3
*203 FILLER_0_13_34
*204 FILLER_0_13_38
*205 FILLER_0_13_54
*206 FILLER_0_13_57
*207 FILLER_0_13_63
*208 FILLER_0_13_7
*209 FILLER_0_13_93
*210 FILLER_0_14_14
*211 FILLER_0_14_41
*212 FILLER_0_14_6
*213 FILLER_0_14_80
*214 FILLER_0_15_15
*215 FILLER_0_15_23
*216 FILLER_0_15_27
*217 FILLER_0_15_29
*218 FILLER_0_15_3
*219 FILLER_0_15_37
*220 FILLER_0_15_44
*221 FILLER_0_15_50
*222 FILLER_0_15_57
*223 FILLER_0_15_69
*224 FILLER_0_15_77
*225 FILLER_0_15_83
*226 FILLER_0_1_25
*227 FILLER_0_1_3
*228 FILLER_0_1_39
*229 FILLER_0_1_46
*230 FILLER_0_1_54
*231 FILLER_0_1_70
*232 FILLER_0_1_85
*233 FILLER_0_1_93
*234 FILLER_0_2_21
*235 FILLER_0_2_25
*236 FILLER_0_2_29
*237 FILLER_0_2_36
*238 FILLER_0_2_48
*239 FILLER_0_2_62
*240 FILLER_0_2_71
*241 FILLER_0_2_83
*242 FILLER_0_2_85
*243 FILLER_0_2_9
*244 FILLER_0_2_93
*245 FILLER_0_3_11
*246 FILLER_0_3_19
*247 FILLER_0_3_3
*248 FILLER_0_3_57
*249 FILLER_0_3_64
*250 FILLER_0_3_79
*251 FILLER_0_3_91
*252 FILLER_0_4_15
*253 FILLER_0_4_27
*254 FILLER_0_4_29
*255 FILLER_0_4_3
*256 FILLER_0_4_37
*257 FILLER_0_4_42
*258 FILLER_0_4_50
*259 FILLER_0_4_58
*260 FILLER_0_4_64
*261 FILLER_0_4_68
*262 FILLER_0_4_80
*263 FILLER_0_4_85
*264 FILLER_0_5_22
*265 FILLER_0_5_34
*266 FILLER_0_5_42
*267 FILLER_0_5_50
*268 FILLER_0_5_57
*269 FILLER_0_5_6
*270 FILLER_0_5_69
*271 FILLER_0_5_81
*272 FILLER_0_5_89
*273 FILLER_0_5_93
*274 FILLER_0_6_13
*275 FILLER_0_6_3
*276 FILLER_0_6_35
*277 FILLER_0_6_46
*278 FILLER_0_6_55
*279 FILLER_0_6_71
*280 FILLER_0_6_92
*281 FILLER_0_7_11
*282 FILLER_0_7_21
*283 FILLER_0_7_3
*284 FILLER_0_7_74
*285 FILLER_0_7_80
*286 FILLER_0_7_86
*287 FILLER_0_8_11
*288 FILLER_0_8_27
*289 FILLER_0_8_29
*290 FILLER_0_8_37
*291 FILLER_0_8_44
*292 FILLER_0_8_52
*293 FILLER_0_8_64
*294 FILLER_0_8_7
*295 FILLER_0_8_76
*296 FILLER_0_8_80
*297 FILLER_0_8_85
*298 FILLER_0_8_93
*299 FILLER_0_9_19
*300 FILLER_0_9_23
*301 FILLER_0_9_3
*302 FILLER_0_9_30
*303 FILLER_0_9_42
*304 FILLER_0_9_54
*305 FILLER_0_9_57
*306 FILLER_0_9_72
*307 FILLER_0_9_84
*308 PHY_0
*309 PHY_1
*310 PHY_10
*311 PHY_11
*312 PHY_12
*313 PHY_13
*314 PHY_14
*315 PHY_15
*316 PHY_16
*317 PHY_17
*318 PHY_18
*319 PHY_19
*320 PHY_2
*321 PHY_20
*322 PHY_21
*323 PHY_22
*324 PHY_23
*325 PHY_24
*326 PHY_25
*327 PHY_26
*328 PHY_27
*329 PHY_28
*330 PHY_29
*331 PHY_3
*332 PHY_30
*333 PHY_31
*334 PHY_4
*335 PHY_5
*336 PHY_6
*337 PHY_7
*338 PHY_8
*339 PHY_9
*340 TAP_32
*341 TAP_33
*342 TAP_34
*343 TAP_35
*344 TAP_36
*345 TAP_37
*346 TAP_38
*347 TAP_39
*348 TAP_40
*349 TAP_41
*350 TAP_42
*351 TAP_43
*352 TAP_44
*353 TAP_45
*354 TAP_46
*355 TAP_47
*356 TAP_48
*357 TAP_49
*358 TAP_50
*359 TAP_51
*360 TAP_52
*361 TAP_53
*362 TAP_54
*363 TAP_55
*364 TAP_56
*365 TAP_57
*366 TAP_58
*367 _106_
*368 _107_
*369 _108_
*370 _109_
*371 _110_
*372 _111_
*373 _112_
*374 _113_
*375 _114_
*376 _115_
*377 _116_
*378 _117_
*379 _118_
*380 _119_
*381 _120_
*382 _121_
*383 _122_
*384 _123_
*385 _124_
*386 _125_
*387 _126_
*388 _127_
*389 _128_
*390 _129_
*391 _130_
*392 _131_
*393 _132_
*394 _133_
*395 _134_
*396 _135_
*397 _136_
*398 _137_
*399 _138_
*400 _139_
*401 _140_
*402 _141_
*403 _142_
*404 _143_
*405 _144_
*406 _145_
*407 _146_
*408 _147_
*409 _148_
*410 _149_
*411 _150_
*412 _151_
*413 _152_
*414 _153_
*415 _154_
*416 _155_
*417 _156_
*418 _157_
*419 _158_
*420 _159_
*421 _160_
*422 _161_
*423 _162_
*424 _163_
*425 _164_
*426 _165_
*427 _166_
*428 _167_
*429 _168_
*430 _169_
*431 _170_
*432 _171_
*433 _172_
*434 _173_
*435 _174_
*436 _175_
*437 _176_
*438 _177_
*439 _178_
*440 _179_
*441 _180_
*442 _181_
*443 _182_
*444 _183_
*445 _184_
*446 _185_
*447 _186_
*448 _187_
*449 _188_
*450 _189_
*451 _190_
*452 _191_
*453 _192_
*454 _193_
*455 _194_
*456 _195_
*457 _196_
*458 _197_
*459 _198_
*460 _199_
*461 _200_
*462 _201_
*463 _202_
*464 _203_
*465 _204_
*466 _205_
*467 _206_
*468 _207_
*469 _208_
*470 _209_
*471 _210_
*472 _211_
*473 _212_
*474 _213_
*475 _214_
*476 _215_
*477 _216_
*478 _217_
*479 _218_
*480 _219_
*481 _220_
*482 input1
*483 input10
*484 input11
*485 input12
*486 input13
*487 input14
*488 input15
*489 input16
*490 input17
*491 input18
*492 input19
*493 input2
*494 input3
*495 input4
*496 input5
*497 input6
*498 input7
*499 input8
*500 input9
*501 output20
*502 output21
*503 output22
*504 output23
*505 output24
*506 output25
*507 output26
*508 output27
*509 output28

*PORTS
ALU_Out[0] O
ALU_Out[1] O
ALU_Out[2] O
ALU_Out[3] O
ALU_Out[4] O
ALU_Out[5] O
ALU_Out[6] O
ALU_Out[7] O
A[0] I
A[1] I
A[2] I
A[3] I
A[4] I
A[5] I
A[6] I
A[7] I
B[0] I
B[1] I
B[2] I
B[3] I
B[4] I
B[5] I
B[6] I
B[7] I
CarryOut O
opcode[0] I
opcode[1] I
opcode[2] I

*D_NET *1 0.00135527
*CONN
*P ALU_Out[0] O
*I *501:X O *D sky130_fd_sc_hd__clkbuf_4
*CAP
1 ALU_Out[0] 0.000450331
2 *501:X 0.000450331
3 ALU_Out[0] *499:A 0.000160641
4 ALU_Out[0] *500:A 0.000244002
5 ALU_Out[0] *501:A 4.99619e-05
*RES
1 *501:X ALU_Out[0] 11.8437 
*END

*D_NET *2 0.00171325
*CONN
*P ALU_Out[1] O
*I *502:X O *D sky130_fd_sc_hd__clkbuf_4
*CAP
1 ALU_Out[1] 0.000856625
2 *502:X 0.000856625
*RES
1 *502:X ALU_Out[1] 17.73 
*END

*D_NET *3 0.000702162
*CONN
*P ALU_Out[2] O
*I *503:X O *D sky130_fd_sc_hd__clkbuf_4
*CAP
1 ALU_Out[2] 0.000307924
2 *503:X 0.000307924
3 ALU_Out[2] *491:A 0
4 ALU_Out[2] *497:A 8.63143e-05
*RES
1 *503:X ALU_Out[2] 7.84043 
*END

*D_NET *4 0.000459602
*CONN
*P ALU_Out[3] O
*I *504:X O *D sky130_fd_sc_hd__clkbuf_4
*CAP
1 ALU_Out[3] 0.000229801
2 *504:X 0.000229801
*RES
1 *504:X ALU_Out[3] 6.38543 
*END

*D_NET *5 0.000979084
*CONN
*P ALU_Out[4] O
*I *505:X O *D sky130_fd_sc_hd__clkbuf_4
*CAP
1 ALU_Out[4] 0.000446321
2 *505:X 0.000446321
3 ALU_Out[4] *491:A 0
4 ALU_Out[4] *141:22 8.64421e-05
*RES
1 *505:X ALU_Out[4] 11.205 
*END

*D_NET *6 0.00106366
*CONN
*P ALU_Out[5] O
*I *506:X O *D sky130_fd_sc_hd__clkbuf_4
*CAP
1 ALU_Out[5] 0.000469855
2 *506:X 0.000469855
3 ALU_Out[5] *141:22 0.000123955
*RES
1 *506:X ALU_Out[5] 11.55 
*END

*D_NET *7 0.0006441
*CONN
*P ALU_Out[6] O
*I *507:X O *D sky130_fd_sc_hd__clkbuf_4
*CAP
1 ALU_Out[6] 0.00032205
2 *507:X 0.00032205
*RES
1 *507:X ALU_Out[6] 6.83197 
*END

*D_NET *8 0.00106459
*CONN
*P ALU_Out[7] O
*I *508:X O *D sky130_fd_sc_hd__clkbuf_4
*CAP
1 ALU_Out[7] 0.000517945
2 *508:X 0.000517945
3 ALU_Out[7] *487:A 0
4 ALU_Out[7] *508:A 2.86975e-05
*RES
1 *508:X ALU_Out[7] 12.105 
*END

*D_NET *9 0.00128482
*CONN
*P A[0] I
*I *482:A I *D sky130_fd_sc_hd__buf_1
*CAP
1 A[0] 0.000460728
2 *482:A 0.000460728
3 *482:A *484:A 6.55777e-05
4 *482:A *495:A 5.12969e-06
5 *482:A *498:A 3.50152e-06
6 *482:A *137:10 3.07739e-05
7 *482:A *139:22 4.82919e-05
8 *482:A *162:10 0.000210094
*RES
1 A[0] *482:A 12.87 
*END

*D_NET *10 0.000520702
*CONN
*P A[1] I
*I *493:A I *D sky130_fd_sc_hd__clkbuf_2
*CAP
1 A[1] 0.000249196
2 *493:A 0.000249196
3 *493:A *470:C_N 2.23107e-05
4 *493:A *492:A 0
*RES
1 A[1] *493:A 6.3537 
*END

*D_NET *11 0.00104008
*CONN
*P A[2] I
*I *494:A I *D sky130_fd_sc_hd__clkbuf_2
*CAP
1 A[2] 0.00045805
2 *494:A 0.00045805
3 *494:A *141:22 0.00012398
*RES
1 A[2] *494:A 11.805 
*END

*D_NET *12 0.00149971
*CONN
*P A[3] I
*I *495:A I *D sky130_fd_sc_hd__buf_1
*CAP
1 A[3] 0.000701261
2 *495:A 0.000701261
3 *495:A *484:A 1.58534e-05
4 *495:A *498:A 7.62018e-05
5 *482:A *495:A 5.12969e-06
*RES
1 A[3] *495:A 12.8366 
*END

*D_NET *13 0.000561411
*CONN
*P A[4] I
*I *496:A I *D sky130_fd_sc_hd__buf_1
*CAP
1 A[4] 0.000280705
2 *496:A 0.000280705
3 *496:A *490:A 0
4 *496:A *503:A 0
5 *496:A *145:16 0
*RES
1 A[4] *496:A 7.40543 
*END

*D_NET *14 0.00150759
*CONN
*P A[5] I
*I *497:A I *D sky130_fd_sc_hd__buf_1
*CAP
1 A[5] 0.000710639
2 *497:A 0.000710639
3 ALU_Out[2] *497:A 8.63143e-05
*RES
1 A[5] *497:A 16.29 
*END

*D_NET *15 0.00149068
*CONN
*P A[6] I
*I *498:A I *D sky130_fd_sc_hd__buf_1
*CAP
1 A[6] 0.000511196
2 *498:A 0.000511196
3 *498:A *484:A 0.000388584
4 *482:A *498:A 3.50152e-06
5 *495:A *498:A 7.62018e-05
*RES
1 A[6] *498:A 14.28 
*END

*D_NET *16 0.001463
*CONN
*P A[7] I
*I *499:A I *D sky130_fd_sc_hd__buf_2
*CAP
1 A[7] 0.000627032
2 *499:A 0.000627032
3 *499:A *500:A 4.82919e-05
4 ALU_Out[0] *499:A 0.000160641
*RES
1 A[7] *499:A 15.18 
*END

*D_NET *17 0.00144926
*CONN
*P B[0] I
*I *500:A I *D sky130_fd_sc_hd__buf_1
*CAP
1 B[0] 0.000534863
2 *500:A 0.000534863
3 *500:A *501:A 4.82919e-05
4 *500:A *163:20 3.89528e-05
5 ALU_Out[0] *500:A 0.000244002
6 *499:A *500:A 4.82919e-05
*RES
1 B[0] *500:A 14.415 
*END

*D_NET *18 0.00121773
*CONN
*P B[1] I
*I *483:A I *D sky130_fd_sc_hd__dlymetal6s2s_1
*CAP
1 B[1] 0.0004136
2 *483:A 0.0004136
3 *483:A *415:A2 3.60024e-06
4 *483:A *137:16 0.000138808
5 *483:A *164:17 0.000199833
6 *483:A *164:36 4.82919e-05
*RES
1 B[1] *483:A 12.075 
*END

*D_NET *19 0.00141165
*CONN
*P B[2] I
*I *484:A I *D sky130_fd_sc_hd__dlymetal6s2s_1
*CAP
1 B[2] 0.000421213
2 *484:A 0.000421213
3 *484:A *137:10 8.64421e-05
4 *484:A *162:10 1.27611e-05
5 *482:A *484:A 6.55777e-05
6 *495:A *484:A 1.58534e-05
7 *498:A *484:A 0.000388584
*RES
1 B[2] *484:A 11.7722 
*END

*D_NET *20 0.00090738
*CONN
*P B[3] I
*I *485:A I *D sky130_fd_sc_hd__buf_1
*CAP
1 B[3] 0.00045369
2 *485:A 0.00045369
3 *485:A *139:22 0
4 *485:A *163:20 0
*RES
1 B[3] *485:A 12.375 
*END

*D_NET *21 0.00118203
*CONN
*P B[4] I
*I *486:A I *D sky130_fd_sc_hd__buf_1
*CAP
1 B[4] 0.000491595
2 *486:A 0.000491595
3 *486:A *502:A 0.000127219
4 *486:A *508:A 7.1624e-05
*RES
1 B[4] *486:A 7.55657 
*END

*D_NET *22 0.00116134
*CONN
*P B[5] I
*I *487:A I *D sky130_fd_sc_hd__buf_1
*CAP
1 B[5] 0.00057523
2 *487:A 0.00057523
3 *487:A *508:A 1.08758e-05
4 ALU_Out[7] *487:A 0
*RES
1 B[5] *487:A 9.59657 
*END

*D_NET *23 0.000616428
*CONN
*P B[6] I
*I *488:A I *D sky130_fd_sc_hd__buf_1
*CAP
1 B[6] 0.000308214
2 *488:A 0.000308214
3 *488:A *160:12 0
*RES
1 B[6] *488:A 7.91543 
*END

*D_NET *24 0.000936177
*CONN
*P B[7] I
*I *489:A I *D sky130_fd_sc_hd__buf_2
*CAP
1 B[7] 0.000438489
2 *489:A 0.000438489
3 *489:A *373:A 1.14192e-05
4 *489:A *141:22 4.77807e-05
*RES
1 B[7] *489:A 11.37 
*END

*D_NET *25 0.00116148
*CONN
*P CarryOut O
*I *509:X O *D sky130_fd_sc_hd__clkbuf_4
*CAP
1 CarryOut 0.000454549
2 *509:X 0.000454549
3 CarryOut *509:A 0.000161529
4 CarryOut *139:22 6.9167e-05
5 CarryOut *164:36 2.16833e-05
*RES
1 *509:X CarryOut 11.22 
*END

*D_NET *28 0.000530865
*CONN
*P opcode[0] I
*I *490:A I *D sky130_fd_sc_hd__clkbuf_2
*CAP
1 opcode[0] 0.000263607
2 *490:A 0.000263607
3 *490:A *145:8 3.64998e-06
4 *490:A *145:10 0
5 *496:A *490:A 0
*RES
1 opcode[0] *490:A 6.98543 
*END

*D_NET *29 0.00159963
*CONN
*P opcode[1] I
*I *491:A I *D sky130_fd_sc_hd__clkbuf_2
*CAP
1 opcode[1] 0.000797225
2 *491:A 0.000797225
3 *491:A *141:22 5.18317e-06
4 ALU_Out[2] *491:A 0
5 ALU_Out[4] *491:A 0
*RES
1 opcode[1] *491:A 10.8883 
*END

*D_NET *30 0.000424874
*CONN
*P opcode[2] I
*I *492:A I *D sky130_fd_sc_hd__buf_2
*CAP
1 opcode[2] 0.000212437
2 *492:A 0.000212437
3 *493:A *492:A 0
*RES
1 opcode[2] *492:A 6.29543 
*END

*D_NET *31 0.0115185
*CONN
*I *480:B1 I *D sky130_fd_sc_hd__a21oi_1
*I *473:A1 I *D sky130_fd_sc_hd__o211ai_1
*I *449:A1 I *D sky130_fd_sc_hd__o211ai_1
*I *438:X O *D sky130_fd_sc_hd__or3_2
*CAP
1 *480:B1 0.000396297
2 *473:A1 0.000570771
3 *449:A1 0.000911375
4 *438:X 0.000261558
5 *31:27 0.00345931
6 *31:8 0.00366518
7 *449:A1 *440:A 4.89395e-05
8 *449:A1 *440:B 2.69217e-05
9 *449:A1 *444:B1 8.19282e-05
10 *449:A1 *445:D_N 0.000112308
11 *449:A1 *446:A 6.47357e-05
12 *449:A1 *447:A2 0.000146831
13 *449:A1 *449:B1 1.35273e-05
14 *449:A1 *33:21 1.54665e-05
15 *449:A1 *101:8 0.000148919
16 *449:A1 *107:8 8.33066e-06
17 *473:A1 *473:B1 0.0001192
18 *473:A1 *473:C1 4.75706e-05
19 *473:A1 *502:A 0.000199714
20 *480:B1 *470:C_N 8.07817e-05
21 *480:B1 *502:A 0.000372736
22 *480:B1 *148:14 0.000168725
23 *31:8 *120:32 0.000380098
24 *31:27 *426:B1 0
25 *31:27 *107:8 0.000100507
26 *31:27 *143:22 0
27 *31:27 *158:34 0.000116816
*RES
1 *438:X *31:8 7.155 
2 *31:8 *449:A1 19.005 
3 *31:8 *31:27 5.25737 
4 *31:27 *473:A1 8.5471 
5 *31:27 *480:B1 12.1829 
*END

*D_NET *32 0.00329091
*CONN
*I *441:A I *D sky130_fd_sc_hd__xnor2_1
*I *439:Y O *D sky130_fd_sc_hd__nand2_1
*CAP
1 *441:A 0.00108545
2 *439:Y 0.00108545
3 *441:A *404:B1 0.000132951
4 *441:A *439:A 3.64998e-06
5 *441:A *441:B 0.000305666
6 *441:A *444:B1 1.32026e-05
7 *441:A *445:C 4.51928e-05
8 *441:A *445:D_N 0.000404449
9 *441:A *447:A1 4.87939e-05
10 *441:A *447:A2 9.12448e-05
11 *441:A *122:44 4.28112e-06
12 *441:A *147:28 7.05781e-05
*RES
1 *439:Y *441:A 25.65 
*END

*D_NET *33 0.00219121
*CONN
*I *444:B1 I *D sky130_fd_sc_hd__o211a_1
*I *442:A I *D sky130_fd_sc_hd__nor2_1
*I *441:B I *D sky130_fd_sc_hd__xnor2_1
*I *440:Y O *D sky130_fd_sc_hd__nor2_1
*CAP
1 *444:B1 0.000153709
2 *442:A 1.26365e-05
3 *441:B 0.000202463
4 *440:Y 0
5 *33:21 0.000242686
6 *33:4 0.000278804
7 *441:B *445:A 0.000114518
8 *441:B *449:B1 0.00012508
9 *441:B *105:23 2.33933e-05
10 *442:A *442:B 1.77945e-05
11 *444:B1 *444:A1 5.87002e-05
12 *444:B1 *444:A2 3.7837e-05
13 *444:B1 *445:A 2.69153e-05
14 *444:B1 *445:B 0.000158551
15 *444:B1 *445:D_N 2.69217e-05
16 *444:B1 *101:8 2.21074e-05
17 *33:21 *440:A 2.69153e-05
18 *33:21 *445:A 0.000133498
19 *33:21 *101:8 0.000112414
20 *441:A *441:B 0.000305666
21 *441:A *444:B1 1.32026e-05
22 *449:A1 *444:B1 8.19282e-05
23 *449:A1 *33:21 1.54665e-05
*RES
1 *440:Y *33:4 1.6 
2 *33:4 *441:B 10.46 
3 *33:4 *33:21 2.52 
4 *33:21 *442:A 1.96 
5 *33:21 *444:B1 9.785 
*END

*D_NET *34 0.000325573
*CONN
*I *449:A2 I *D sky130_fd_sc_hd__o211ai_1
*I *441:Y O *D sky130_fd_sc_hd__xnor2_1
*CAP
1 *449:A2 0.000101725
2 *441:Y 0.000101725
3 *449:A2 *449:B1 5.06989e-05
4 *449:A2 *449:C1 7.14241e-05
*RES
1 *441:Y *449:A2 8.865 
*END

*D_NET *35 0.00096352
*CONN
*I *445:A I *D sky130_fd_sc_hd__or4b_1
*I *442:Y O *D sky130_fd_sc_hd__nor2_1
*CAP
1 *445:A 0.000265268
2 *442:Y 0.000265268
3 *445:A *442:B 6.72833e-06
4 *445:A *101:8 8.28018e-06
5 *445:A *101:21 0.000136809
6 *445:A *105:23 6.23541e-06
7 *441:B *445:A 0.000114518
8 *444:B1 *445:A 2.69153e-05
9 *33:21 *445:A 0.000133498
*RES
1 *442:Y *445:A 11.7 
*END

*D_NET *36 0.0006644
*CONN
*I *444:A2 I *D sky130_fd_sc_hd__o211a_1
*I *443:Y O *D sky130_fd_sc_hd__inv_2
*CAP
1 *444:A2 0.000192062
2 *443:Y 0.000192062
3 *444:A2 *386:C 1.75875e-05
4 *444:A2 *444:C1 4.77719e-05
5 *444:A2 *445:B 3.41764e-05
6 *444:A2 *81:18 2.49909e-05
7 *444:A2 *91:10 0.000117912
8 *444:B1 *444:A2 3.7837e-05
*RES
1 *443:Y *444:A2 10.965 
*END

*D_NET *37 0.000262391
*CONN
*I *445:C I *D sky130_fd_sc_hd__or4b_1
*I *444:X O *D sky130_fd_sc_hd__o211a_1
*CAP
1 *445:C 5.27972e-05
2 *444:X 5.27972e-05
3 *445:C *445:B 8.46818e-05
4 *445:C *445:D_N 2.69217e-05
5 *441:A *445:C 4.51928e-05
*RES
1 *444:X *445:C 4.685 
*END

*D_NET *38 0.000592286
*CONN
*I *449:B1 I *D sky130_fd_sc_hd__o211ai_1
*I *445:X O *D sky130_fd_sc_hd__or4b_1
*CAP
1 *449:B1 0.000141887
2 *445:X 0.000141887
3 *449:B1 *440:B 4.77807e-05
4 *449:B1 *105:23 7.14241e-05
5 *441:B *449:B1 0.00012508
6 *449:A1 *449:B1 1.35273e-05
7 *449:A2 *449:B1 5.06989e-05
*RES
1 *445:X *449:B1 10.515 
*END

*D_NET *39 0.00314643
*CONN
*I *471:B1 I *D sky130_fd_sc_hd__o21a_1
*I *447:B1 I *D sky130_fd_sc_hd__o21a_1
*I *446:Y O *D sky130_fd_sc_hd__nand2_1
*CAP
1 *471:B1 0.000651925
2 *447:B1 3.26341e-05
3 *446:Y 4.76176e-05
4 *39:6 0.000732177
5 *447:B1 *447:A2 5.19006e-06
6 *471:B1 *379:A 4.66108e-05
7 *471:B1 *379:B 5.29016e-05
8 *471:B1 *381:A 0.00019012
9 *471:B1 *423:B1 8.34281e-06
10 *471:B1 *434:A 0.000271087
11 *471:B1 *435:B1 8.35106e-05
12 *471:B1 *437:B1 7.1624e-05
13 *471:B1 *447:A1 8.35106e-05
14 *471:B1 *447:A2 9.56017e-06
15 *471:B1 *471:A1 3.50152e-06
16 *471:B1 *472:B1 8.64421e-05
17 *471:B1 *84:6 0.000227078
18 *471:B1 *105:38 4.66108e-05
19 *471:B1 *106:14 4.89395e-05
20 *471:B1 *120:81 6.28368e-05
21 *471:B1 *122:54 4.13481e-05
22 *471:B1 *163:20 2.03162e-05
23 *39:6 *447:A2 3.64998e-06
24 *39:6 *448:B1 0.000122817
25 *39:6 *105:38 0.00019608
*RES
1 *446:Y *39:6 3.43 
2 *39:6 *447:B1 2.215 
3 *39:6 *471:B1 18.605 
*END

*D_NET *40 0.000378211
*CONN
*I *448:B1 I *D sky130_fd_sc_hd__o2bb2a_1
*I *447:X O *D sky130_fd_sc_hd__o21a_1
*CAP
1 *448:B1 7.2739e-05
2 *447:X 7.2739e-05
3 *448:B1 *446:B 4.77769e-05
4 *448:B1 *448:B2 4.77769e-05
5 *448:B1 *105:38 1.43622e-05
6 *39:6 *448:B1 0.000122817
*RES
1 *447:X *448:B1 5.03 
*END

*D_NET *41 0.00159889
*CONN
*I *449:C1 I *D sky130_fd_sc_hd__o211ai_1
*I *448:X O *D sky130_fd_sc_hd__o2bb2a_1
*CAP
1 *449:C1 0.000408155
2 *448:X 0.000408155
3 *449:C1 *415:B1_N 0.000622726
4 *449:C1 *448:A2_N 1.77665e-05
5 *449:C1 *115:10 1.72184e-05
6 *449:C1 *120:20 5.34461e-05
7 *449:A2 *449:C1 7.14241e-05
*RES
1 *448:X *449:C1 16.17 
*END

*D_NET *42 0.00102881
*CONN
*I *457:A1 I *D sky130_fd_sc_hd__a311o_1
*I *450:Y O *D sky130_fd_sc_hd__nand2_1
*CAP
1 *457:A1 0.000464375
2 *450:Y 0.000464375
3 *457:A1 *452:A0 7.1624e-05
4 *457:A1 *457:A3 0
5 *457:A1 *46:21 1.88602e-05
6 *457:A1 *99:65 4.55864e-06
7 *457:A1 *99:90 5.02126e-06
8 *457:A1 *143:22 0
9 *457:A1 *146:18 0
*RES
1 *450:Y *457:A1 10.1891 
*END

*D_NET *43 0.000419033
*CONN
*I *457:A3 I *D sky130_fd_sc_hd__a311o_1
*I *451:X O *D sky130_fd_sc_hd__or2_1
*CAP
1 *457:A3 0.000114795
2 *451:X 0.000114795
3 *457:A3 *452:A1 6.88421e-05
4 *457:A3 *46:8 8.33066e-06
5 *457:A3 *46:21 0.000100879
6 *457:A3 *80:53 1.1392e-05
7 *457:A1 *457:A3 0
*RES
1 *451:X *457:A3 9.03 
*END

*D_NET *44 0.000150465
*CONN
*I *453:A2 I *D sky130_fd_sc_hd__o21a_1
*I *452:X O *D sky130_fd_sc_hd__mux2_1
*CAP
1 *453:A2 4.74576e-05
2 *452:X 4.74576e-05
3 *453:A2 *121:14 2.68526e-05
4 *453:A2 *121:37 2.86975e-05
*RES
1 *452:X *453:A2 3.995 
*END

*D_NET *45 0.00161109
*CONN
*I *457:B1 I *D sky130_fd_sc_hd__a311o_1
*I *453:X O *D sky130_fd_sc_hd__o21a_1
*CAP
1 *457:B1 0.000466525
2 *453:X 0.000466525
3 *457:B1 *452:A1 0.000195682
4 *457:B1 *452:S 2.68526e-05
5 *457:B1 *457:A2 8.33444e-05
6 *457:B1 *121:14 8.35106e-05
7 *457:B1 *121:37 0.000288651
*RES
1 *453:X *457:B1 11.63 
*END

*D_NET *46 0.001919
*CONN
*I *459:A2 I *D sky130_fd_sc_hd__a21o_1
*I *458:B I *D sky130_fd_sc_hd__nand3_1
*I *456:A I *D sky130_fd_sc_hd__and3_1
*I *454:X O *D sky130_fd_sc_hd__or3_1
*CAP
1 *459:A2 0.000121187
2 *458:B 4.17668e-05
3 *456:A 4.90967e-05
4 *454:X 9.92455e-05
5 *46:21 0.000314539
6 *46:8 0.000299928
7 *456:A *91:24 1.79174e-05
8 *458:B *390:B1 0.000123225
9 *458:B *458:A 9.12671e-06
10 *458:B *458:C 4.99619e-05
11 *458:B *78:38 4.10196e-05
12 *458:B *99:90 1.20936e-05
13 *459:A2 *458:C 8.53927e-05
14 *459:A2 *459:A1 2.69153e-05
15 *459:A2 *505:A 0.0001032
16 *459:A2 *108:12 3.82264e-06
17 *459:A2 *161:6 4.77769e-05
18 *46:8 *452:A1 4.36466e-05
19 *46:8 *456:C 3.12983e-05
20 *46:8 *80:53 9.05535e-05
21 *46:8 *113:60 3.72007e-05
22 *46:21 *505:A 5.6458e-05
23 *46:21 *99:65 2.36335e-05
24 *46:21 *99:90 6.19269e-05
25 *457:A1 *46:21 1.88602e-05
26 *457:A3 *46:8 8.33066e-06
27 *457:A3 *46:21 0.000100879
*RES
1 *454:X *46:8 5.745 
2 *46:8 *456:A 4.41 
3 *46:8 *46:21 3.42 
4 *46:21 *458:B 5.1 
5 *46:21 *459:A2 6.81 
*END

*D_NET *47 0.000795588
*CONN
*I *456:C I *D sky130_fd_sc_hd__and3_1
*I *455:Y O *D sky130_fd_sc_hd__o21ai_1
*CAP
1 *456:C 0.000166613
2 *455:Y 0.000166613
3 *456:C *455:B1 2.14287e-05
4 *456:C *91:24 5.73568e-06
5 *456:C *99:65 0.000256751
6 *456:C *113:60 0.000147148
7 *46:8 *456:C 3.12983e-05
*RES
1 *455:Y *456:C 11.295 
*END

*D_NET *48 0.000355203
*CONN
*I *457:C1 I *D sky130_fd_sc_hd__a311o_1
*I *456:X O *D sky130_fd_sc_hd__and3_1
*CAP
1 *457:C1 6.64599e-05
2 *456:X 6.64599e-05
3 *457:C1 *390:B1 8.53113e-06
4 *457:C1 *407:B1 0
5 *457:C1 *80:14 7.69849e-05
6 *457:C1 *80:18 7.03219e-05
7 *457:C1 *99:65 4.14543e-05
8 *457:C1 *121:37 2.49909e-05
*RES
1 *456:X *457:C1 9.03 
*END

*D_NET *49 0.000637954
*CONN
*I *465:A2 I *D sky130_fd_sc_hd__a31o_1
*I *458:Y O *D sky130_fd_sc_hd__nand3_1
*CAP
1 *465:A2 0.000196606
2 *458:Y 0.000196606
3 *465:A2 *406:A 4.89395e-05
4 *465:A2 *406:B 8.64599e-05
5 *465:A2 *465:B1 6.04361e-05
6 *465:A2 *78:38 1.14192e-05
7 *465:A2 *99:90 3.74864e-05
*RES
1 *458:Y *465:A2 10.41 
*END

*D_NET *50 0.000305491
*CONN
*I *465:A3 I *D sky130_fd_sc_hd__a31o_1
*I *459:X O *D sky130_fd_sc_hd__a21o_1
*CAP
1 *465:A3 2.44163e-05
2 *459:X 2.44163e-05
3 *465:A3 *108:12 0.0001615
4 *465:A3 *161:6 9.51579e-05
*RES
1 *459:X *465:A3 4.685 
*END

*D_NET *51 0.0013617
*CONN
*I *464:A1 I *D sky130_fd_sc_hd__a31o_1
*I *460:X O *D sky130_fd_sc_hd__or2_1
*CAP
1 *464:A1 0.000301941
2 *460:X 0.000301941
3 *464:A1 *392:B1 0.000137228
4 *464:A1 *460:A 2.10034e-05
5 *464:A1 *460:B 2.16917e-05
6 *464:A1 *463:A1_N 0.000158532
7 *464:A1 *464:B1 8.52845e-05
8 *464:A1 *477:A3 5.05521e-05
9 *464:A1 *77:12 0.00013654
10 *464:A1 *99:98 2.7228e-05
11 *464:A1 *121:37 0.000119756
*RES
1 *460:X *464:A1 13.185 
*END

*D_NET *52 0.000452906
*CONN
*I *464:A3 I *D sky130_fd_sc_hd__a31o_1
*I *461:Y O *D sky130_fd_sc_hd__nand2_1
*CAP
1 *464:A3 0.000126069
2 *461:Y 0.000126069
3 *464:A3 *113:71 0.000114326
4 *464:A3 *121:37 8.64421e-05
*RES
1 *461:Y *464:A3 9.375 
*END

*D_NET *53 0.000840453
*CONN
*I *463:A2_N I *D sky130_fd_sc_hd__a2bb2o_1
*I *462:Y O *D sky130_fd_sc_hd__a21oi_1
*CAP
1 *463:A2_N 0.000220823
2 *462:Y 0.000220823
3 *463:A2_N *392:B1 0.000202411
4 *463:A2_N *462:A2 3.31859e-05
5 *463:A2_N *463:B1 0
6 *463:A2_N *77:12 7.21296e-06
7 *463:A2_N *100:10 0
8 *463:A2_N *121:37 0.000155996
*RES
1 *462:Y *463:A2_N 11.6925 
*END

*D_NET *54 0.000213453
*CONN
*I *464:B1 I *D sky130_fd_sc_hd__a31o_1
*I *463:X O *D sky130_fd_sc_hd__a2bb2o_1
*CAP
1 *464:B1 3.96604e-05
2 *463:X 3.96604e-05
3 *464:B1 *99:98 4.88478e-05
4 *464:A1 *464:B1 8.52845e-05
*RES
1 *463:X *464:B1 4.355 
*END

*D_NET *55 0.00069375
*CONN
*I *465:B1 I *D sky130_fd_sc_hd__a31o_1
*I *464:X O *D sky130_fd_sc_hd__a31o_1
*CAP
1 *465:B1 0.000198517
2 *464:X 0.000198517
3 *465:B1 *406:A 0.000122797
4 *465:B1 *463:A1_N 8.35106e-05
5 *465:B1 *76:32 2.99731e-05
6 *465:A2 *465:B1 6.04361e-05
*RES
1 *464:X *465:B1 10.41 
*END

*D_NET *56 0.00190846
*CONN
*I *467:A I *D sky130_fd_sc_hd__xnor2_1
*I *466:Y O *D sky130_fd_sc_hd__nand2_1
*CAP
1 *467:A 0.000454303
2 *466:Y 0.000454303
3 *467:A *370:B 2.49909e-05
4 *467:A *394:A1 0.000126927
5 *467:A *466:A 4.77807e-05
6 *467:A *468:B 4.80982e-05
7 *467:A *473:C1 0.00013475
8 *467:A *72:10 0.000173635
9 *467:A *72:16 0.00011202
10 *467:A *73:12 4.66108e-05
11 *467:A *74:10 0.000175274
12 *467:A *74:27 3.00494e-05
13 *467:A *95:20 8.34144e-06
14 *467:A *143:22 4.7561e-05
15 *467:A *143:31 2.382e-05
*RES
1 *466:Y *467:A 16.845 
*END

*D_NET *57 0.000396457
*CONN
*I *473:A2 I *D sky130_fd_sc_hd__o211ai_1
*I *467:Y O *D sky130_fd_sc_hd__xnor2_1
*CAP
1 *473:A2 8.66481e-05
2 *467:Y 8.66481e-05
3 *473:A2 *470:A 4.77719e-05
4 *473:A2 *473:B1 0.000112279
5 *473:A2 *162:10 6.31104e-05
*RES
1 *467:Y *473:A2 9.03 
*END

*D_NET *58 0.000757399
*CONN
*I *470:A I *D sky130_fd_sc_hd__or3b_1
*I *468:Y O *D sky130_fd_sc_hd__nor2_1
*CAP
1 *470:A 0.000289916
2 *468:Y 0.000289916
3 *470:A *468:A 9.32375e-05
4 *470:A *468:B 1.54665e-05
5 *470:A *74:27 2.10905e-05
6 *473:A2 *470:A 4.77719e-05
*RES
1 *468:Y *470:A 7.805 
*END

*D_NET *59 0.000315161
*CONN
*I *470:B I *D sky130_fd_sc_hd__or3b_1
*I *469:X O *D sky130_fd_sc_hd__and2_1
*CAP
1 *470:B 0.000118256
2 *469:X 0.000118256
3 *470:B *502:A 7.01303e-05
4 *470:B *147:28 8.5188e-06
*RES
1 *469:X *470:B 8.865 
*END

*D_NET *60 0.000413188
*CONN
*I *473:B1 I *D sky130_fd_sc_hd__o211ai_1
*I *470:X O *D sky130_fd_sc_hd__or3b_1
*CAP
1 *473:B1 5.9795e-05
2 *470:X 5.9795e-05
3 *473:B1 *473:C1 4.89295e-05
4 *473:B1 *502:A 1.31901e-05
5 *473:A1 *473:B1 0.0001192
6 *473:A2 *473:B1 0.000112279
*RES
1 *470:X *473:B1 9.03 
*END

*D_NET *61 0.000522988
*CONN
*I *472:B1 I *D sky130_fd_sc_hd__o2bb2a_1
*I *471:X O *D sky130_fd_sc_hd__o21a_1
*CAP
1 *472:B1 7.12353e-05
2 *471:X 7.12353e-05
3 *472:B1 *422:B 8.46767e-05
4 *472:B1 *471:A1 1.77665e-05
5 *472:B1 *120:81 3.06972e-05
6 *472:B1 *122:54 0.000160935
7 *471:B1 *472:B1 8.64421e-05
*RES
1 *471:X *472:B1 5.735 
*END

*D_NET *62 0.00157251
*CONN
*I *473:C1 I *D sky130_fd_sc_hd__o211ai_1
*I *472:X O *D sky130_fd_sc_hd__o2bb2a_1
*CAP
1 *473:C1 0.000505135
2 *472:X 0.000505135
3 *473:C1 *469:B 8.83758e-05
4 *473:C1 *72:16 3.46092e-05
5 *473:C1 *74:27 0.000113222
6 *473:C1 *162:10 9.47778e-05
7 *467:A *473:C1 0.00013475
8 *473:A1 *473:C1 4.75706e-05
9 *473:B1 *473:C1 4.89295e-05
*RES
1 *472:X *473:C1 16.02 
*END

*D_NET *63 0.000550518
*CONN
*I *481:A2 I *D sky130_fd_sc_hd__a211o_1
*I *474:X O *D sky130_fd_sc_hd__xor2_1
*CAP
1 *481:A2 0.00020113
2 *474:X 0.00020113
3 *481:A2 *470:C_N 6.37372e-05
4 *481:A2 *481:A1 2.16626e-05
5 *481:A2 *508:A 3.91427e-06
6 *481:A2 *99:106 5.8944e-05
*RES
1 *474:X *481:A2 5.9 
*END

*D_NET *64 0.000372439
*CONN
*I *476:B2 I *D sky130_fd_sc_hd__o22a_1
*I *475:Y O *D sky130_fd_sc_hd__a21oi_1
*CAP
1 *476:B2 7.45831e-05
2 *475:Y 7.45831e-05
3 *476:B2 *409:A2 5.12969e-06
4 *476:B2 *475:A1 1.52352e-05
5 *476:B2 *476:B1 3.10365e-05
6 *476:B2 *477:B1 2.86975e-05
7 *476:B2 *144:18 9.03508e-06
8 *476:B2 *163:37 0.000134138
*RES
1 *475:Y *476:B2 5.405 
*END

*D_NET *65 0.00104555
*CONN
*I *477:B1 I *D sky130_fd_sc_hd__a31o_1
*I *476:X O *D sky130_fd_sc_hd__o22a_1
*CAP
1 *477:B1 0.000272762
2 *476:X 0.000272762
3 *477:B1 *477:A3 0.000160314
4 *477:B1 *100:10 0.000113865
5 *477:B1 *100:16 0.000179071
6 *477:B1 *144:16 0
7 *477:B1 *163:37 1.8082e-05
8 *476:B2 *477:B1 2.86975e-05
*RES
1 *476:X *477:B1 12.9 
*END

*D_NET *66 0.00197079
*CONN
*I *481:B1 I *D sky130_fd_sc_hd__a211o_1
*I *477:X O *D sky130_fd_sc_hd__a31o_1
*CAP
1 *481:B1 0.000633055
2 *477:X 0.000633055
3 *481:B1 *412:A1 8.53011e-05
4 *481:B1 *412:A2 0.000114492
5 *481:B1 *412:B1 0.000134497
6 *481:B1 *474:A 8.53011e-05
7 *481:B1 *481:A1 9.4659e-06
8 *481:B1 *71:10 0
9 *481:B1 *99:106 0.000116851
10 *481:B1 *158:20 0.000158768
*RES
1 *477:X *481:B1 16.905 
*END

*D_NET *67 0.000935868
*CONN
*I *480:A1 I *D sky130_fd_sc_hd__a21oi_1
*I *478:Y O *D sky130_fd_sc_hd__o21ai_1
*CAP
1 *480:A1 0.000257984
2 *478:Y 0.000257984
3 *480:A1 *394:A1 4.66108e-05
4 *480:A1 *394:A2 8.73389e-06
5 *480:A1 *479:B 4.89395e-05
6 *480:A1 *480:A2 0.000122801
7 *480:A1 *71:14 0.000155614
8 *480:A1 *95:20 3.72007e-05
*RES
1 *478:Y *480:A1 12.06 
*END

*D_NET *68 0.00075052
*CONN
*I *480:A2 I *D sky130_fd_sc_hd__a21oi_1
*I *479:X O *D sky130_fd_sc_hd__or3_1
*CAP
1 *480:A2 0.000165272
2 *479:X 0.000165272
3 *480:A2 *394:A1 0.00013475
4 *480:A2 *394:B1 0.000162424
5 *480:A1 *480:A2 0.000122801
*RES
1 *479:X *480:A2 10.77 
*END

*D_NET *69 0.000890896
*CONN
*I *481:C1 I *D sky130_fd_sc_hd__a211o_1
*I *480:Y O *D sky130_fd_sc_hd__a21oi_1
*CAP
1 *481:C1 0.000246339
2 *480:Y 0.000246339
3 *481:C1 *502:A 0.000398217
4 *481:C1 *71:10 0
*RES
1 *480:Y *481:C1 12.45 
*END

*D_NET *70 0.00104346
*CONN
*I *412:A1 I *D sky130_fd_sc_hd__a31o_1
*I *367:X O *D sky130_fd_sc_hd__or2b_1
*CAP
1 *412:A1 0.000273176
2 *367:X 0.000273176
3 *412:A1 *368:B 4.93142e-05
4 *412:A1 *411:A1 0.000113222
5 *412:A1 *412:B1 5.83121e-06
6 *412:A1 *99:98 0.000122325
7 *412:A1 *99:106 2.03356e-05
8 *412:A1 *142:16 3.95759e-05
9 *412:A1 *158:20 6.12027e-05
10 *481:B1 *412:A1 8.53011e-05
*RES
1 *367:X *412:A1 12.24 
*END

*D_NET *71 0.00169459
*CONN
*I *474:A I *D sky130_fd_sc_hd__xor2_1
*I *395:A I *D sky130_fd_sc_hd__nand2_1
*I *479:C I *D sky130_fd_sc_hd__or3_1
*I *478:B1 I *D sky130_fd_sc_hd__o21ai_1
*I *368:Y O *D sky130_fd_sc_hd__xnor2_2
*CAP